<routes>
	<flow begin="0" departLane="best" departSpeed="max" end="60" from="60" id="0" number="3" to="-77" type="car" />
	<flow begin="0" departLane="best" departSpeed="max" end="60" from="60" id="1" number="3" to="-198" type="car" />
	<flow begin="0" departLane="best" departSpeed="max" end="60" from="60" id="2" number="7" to="-89" type="car" />
	<flow begin="0" departLane="best" departSpeed="max" end="60" from="60" id="3" number="1" to="-128#2" type="car" />
	<flow begin="0" departLane="best" departSpeed="max" end="60" from="-94#1" id="4" number="3" to="-77" type="car" />
	<flow begin="0" departLane="best" departSpeed="max" end="60" from="-94#1" id="5" number="36" to="-198" type="car" />
	<flow begin="0" departLane="best" departSpeed="max" end="60" from="-94#1" id="6" number="13" to="-128#2" type="car" />
	<flow begin="0" departLane="best" departSpeed="max" end="60" from="-155" id="7" number="14" to="-77" type="car" />
	<flow begin="0" departLane="best" departSpeed="max" end="60" from="-155" id="8" number="1" to="-198" type="car" />
	<flow begin="0" departLane="best" departSpeed="max" end="60" from="-155" id="9" number="47" to="-89" type="car" />
	<flow begin="0" departLane="best" departSpeed="max" end="60" from="-155" id="10" number="11" to="-128#2" type="car" />
	<flow begin="0" departLane="best" departSpeed="max" end="60" from="-103" id="11" number="2" to="-198" type="car" />
	<flow begin="0" departLane="best" departSpeed="max" end="60" from="-103" id="12" number="2" to="-89" type="car" />
	<flow begin="0" departLane="best" departSpeed="max" end="60" from="-103" id="13" number="5" to="-128#2" type="car" />
	<flow begin="60" departLane="best" departSpeed="max" end="120" from="60" id="14" number="4" to="-77" type="car" />
	<flow begin="60" departLane="best" departSpeed="max" end="120" from="60" id="15" number="8" to="-89" type="car" />
	<flow begin="60" departLane="best" departSpeed="max" end="120" from="-94#1" id="16" number="9" to="-198" type="car" />
	<flow begin="60" departLane="best" departSpeed="max" end="120" from="-94#1" id="17" number="32" to="-128#2" type="car" />
	<flow begin="60" departLane="best" departSpeed="max" end="120" from="-155" id="18" number="1" to="-77" type="car" />
	<flow begin="60" departLane="best" departSpeed="max" end="120" from="-155" id="19" number="11" to="-89" type="car" />
	<flow begin="60" departLane="best" departSpeed="max" end="120" from="-155" id="20" number="4" to="-128#2" type="car" />
	<flow begin="60" departLane="best" departSpeed="max" end="120" from="-103" id="21" number="4" to="-198" type="car" />
	<flow begin="60" departLane="best" departSpeed="max" end="120" from="-103" id="22" number="22" to="-128#2" type="car" />
	<flow begin="120" departLane="best" departSpeed="max" end="180" from="60" id="23" number="28" to="-77" type="car" />
	<flow begin="120" departLane="best" departSpeed="max" end="180" from="60" id="24" number="26" to="-198" type="car" />
	<flow begin="120" departLane="best" departSpeed="max" end="180" from="60" id="25" number="7" to="-89" type="car" />
	<flow begin="120" departLane="best" departSpeed="max" end="180" from="-94#1" id="26" number="1" to="-77" type="car" />
	<flow begin="120" departLane="best" departSpeed="max" end="180" from="-94#1" id="27" number="1" to="-198" type="car" />
	<flow begin="120" departLane="best" departSpeed="max" end="180" from="-155" id="28" number="2" to="-77" type="car" />
	<flow begin="120" departLane="best" departSpeed="max" end="180" from="-155" id="29" number="5" to="-89" type="car" />
	<flow begin="120" departLane="best" departSpeed="max" end="180" from="-155" id="30" number="8" to="-128#2" type="car" />
	<flow begin="120" departLane="best" departSpeed="max" end="180" from="-103" id="31" number="2" to="-198" type="car" />
	<flow begin="120" departLane="best" departSpeed="max" end="180" from="-103" id="32" number="2" to="-89" type="car" />
	<flow begin="120" departLane="best" departSpeed="max" end="180" from="-103" id="33" number="10" to="-128#2" type="car" />
	<flow begin="180" departLane="best" departSpeed="max" end="240" from="60" id="34" number="3" to="-77" type="car" />
	<flow begin="180" departLane="best" departSpeed="max" end="240" from="60" id="35" number="2" to="-198" type="car" />
	<flow begin="180" departLane="best" departSpeed="max" end="240" from="-94#1" id="36" number="1" to="-77" type="car" />
	<flow begin="180" departLane="best" departSpeed="max" end="240" from="-94#1" id="37" number="20" to="-198" type="car" />
	<flow begin="180" departLane="best" departSpeed="max" end="240" from="-155" id="38" number="6" to="-77" type="car" />
	<flow begin="180" departLane="best" departSpeed="max" end="240" from="-155" id="39" number="28" to="-89" type="car" />
	<flow begin="180" departLane="best" departSpeed="max" end="240" from="-155" id="40" number="8" to="-128#2" type="car" />
	<flow begin="180" departLane="best" departSpeed="max" end="240" from="-103" id="41" number="1" to="-128#2" type="car" />
	<flow begin="240" departLane="best" departSpeed="max" end="300" from="60" id="42" number="1" to="-77" type="car" />
	<flow begin="240" departLane="best" departSpeed="max" end="300" from="60" id="43" number="7" to="-89" type="car" />
	<flow begin="240" departLane="best" departSpeed="max" end="300" from="-94#1" id="44" number="2" to="-77" type="car" />
	<flow begin="240" departLane="best" departSpeed="max" end="300" from="-94#1" id="45" number="13" to="-198" type="car" />
	<flow begin="240" departLane="best" departSpeed="max" end="300" from="-94#1" id="46" number="19" to="-128#2" type="car" />
	<flow begin="240" departLane="best" departSpeed="max" end="300" from="-155" id="47" number="10" to="-89" type="car" />
	<flow begin="240" departLane="best" departSpeed="max" end="300" from="-155" id="48" number="5" to="-128#2" type="car" />
	<flow begin="240" departLane="best" departSpeed="max" end="300" from="-103" id="49" number="1" to="-198" type="car" />
	<flow begin="240" departLane="best" departSpeed="max" end="300" from="-103" id="50" number="2" to="-89" type="car" />
	<flow begin="240" departLane="best" departSpeed="max" end="300" from="-103" id="51" number="8" to="-128#2" type="car" />
	<flow begin="300" departLane="best" departSpeed="max" end="360" from="60" id="52" number="32" to="-77" type="car" />
	<flow begin="300" departLane="best" departSpeed="max" end="360" from="60" id="53" number="40" to="-198" type="car" />
	<flow begin="300" departLane="best" departSpeed="max" end="360" from="60" id="54" number="15" to="-89" type="car" />
	<flow begin="300" departLane="best" departSpeed="max" end="360" from="60" id="55" number="2" to="-128#2" type="car" />
	<flow begin="300" departLane="best" departSpeed="max" end="360" from="-94#1" id="56" number="1" to="-128#2" type="car" />
	<flow begin="300" departLane="best" departSpeed="max" end="360" from="-155" id="57" number="2" to="-77" type="car" />
	<flow begin="300" departLane="best" departSpeed="max" end="360" from="-155" id="58" number="4" to="-89" type="car" />
	<flow begin="300" departLane="best" departSpeed="max" end="360" from="-155" id="59" number="15" to="-128#2" type="car" />
	<flow begin="300" departLane="best" departSpeed="max" end="360" from="-103" id="60" number="1" to="-89" type="car" />
	<flow begin="300" departLane="best" departSpeed="max" end="360" from="-103" id="61" number="2" to="-128#2" type="car" />
	<flow begin="360" departLane="best" departSpeed="max" end="420" from="60" id="62" number="2" to="-77" type="car" />
	<flow begin="360" departLane="best" departSpeed="max" end="420" from="60" id="63" number="3" to="-198" type="car" />
	<flow begin="360" departLane="best" departSpeed="max" end="420" from="60" id="64" number="7" to="-89" type="car" />
	<flow begin="360" departLane="best" departSpeed="max" end="420" from="-94#1" id="65" number="4" to="-77" type="car" />
	<flow begin="360" departLane="best" departSpeed="max" end="420" from="-94#1" id="66" number="17" to="-198" type="car" />
	<flow begin="360" departLane="best" departSpeed="max" end="420" from="-94#1" id="67" number="7" to="-128#2" type="car" />
	<flow begin="360" departLane="best" departSpeed="max" end="420" from="-155" id="68" number="2" to="-77" type="car" />
	<flow begin="360" departLane="best" departSpeed="max" end="420" from="-155" id="69" number="33" to="-89" type="car" />
	<flow begin="360" departLane="best" departSpeed="max" end="420" from="-155" id="70" number="7" to="-128#2" type="car" />
	<flow begin="360" departLane="best" departSpeed="max" end="420" from="-103" id="71" number="1" to="-198" type="car" />
	<flow begin="360" departLane="best" departSpeed="max" end="420" from="-103" id="72" number="3" to="-89" type="car" />
	<flow begin="360" departLane="best" departSpeed="max" end="420" from="-103" id="73" number="3" to="-128#2" type="car" />
	<flow begin="420" departLane="best" departSpeed="max" end="480" from="60" id="74" number="3" to="-77" type="car" />
	<flow begin="420" departLane="best" departSpeed="max" end="480" from="60" id="75" number="10" to="-89" type="car" />
	<flow begin="420" departLane="best" departSpeed="max" end="480" from="-94#1" id="76" number="1" to="-77" type="car" />
	<flow begin="420" departLane="best" departSpeed="max" end="480" from="-94#1" id="77" number="12" to="-198" type="car" />
	<flow begin="420" departLane="best" departSpeed="max" end="480" from="-94#1" id="78" number="11" to="-128#2" type="car" />
	<flow begin="420" departLane="best" departSpeed="max" end="480" from="-155" id="79" number="11" to="-89" type="car" />
	<flow begin="420" departLane="best" departSpeed="max" end="480" from="-155" id="80" number="5" to="-128#2" type="car" />
	<flow begin="420" departLane="best" departSpeed="max" end="480" from="-103" id="81" number="3" to="-198" type="car" />
	<flow begin="420" departLane="best" departSpeed="max" end="480" from="-103" id="82" number="1" to="-89" type="car" />
	<flow begin="420" departLane="best" departSpeed="max" end="480" from="-103" id="83" number="6" to="-128#2" type="car" />
	<flow begin="480" departLane="best" departSpeed="max" end="540" from="60" id="84" number="27" to="-77" type="car" />
	<flow begin="480" departLane="best" departSpeed="max" end="540" from="60" id="85" number="19" to="-198" type="car" />
	<flow begin="480" departLane="best" departSpeed="max" end="540" from="60" id="86" number="14" to="-89" type="car" />
	<flow begin="480" departLane="best" departSpeed="max" end="540" from="60" id="87" number="1" to="-128#2" type="car" />
	<flow begin="480" departLane="best" departSpeed="max" end="540" from="-94#1" id="88" number="5" to="-198" type="car" />
	<flow begin="480" departLane="best" departSpeed="max" end="540" from="-155" id="89" number="1" to="-77" type="car" />
	<flow begin="480" departLane="best" departSpeed="max" end="540" from="-155" id="90" number="2" to="-89" type="car" />
	<flow begin="480" departLane="best" departSpeed="max" end="540" from="-155" id="91" number="2" to="-128#2" type="car" />
	<flow begin="480" departLane="best" departSpeed="max" end="540" from="-103" id="92" number="1" to="-89" type="car" />
	<flow begin="480" departLane="best" departSpeed="max" end="540" from="-103" id="93" number="15" to="-128#2" type="car" />
	<flow begin="540" departLane="best" departSpeed="max" end="600" from="60" id="94" number="3" to="-77" type="car" />
	<flow begin="540" departLane="best" departSpeed="max" end="600" from="60" id="95" number="6" to="-198" type="car" />
	<flow begin="540" departLane="best" departSpeed="max" end="600" from="60" id="96" number="2" to="-89" type="car" />
	<flow begin="540" departLane="best" departSpeed="max" end="600" from="-94#1" id="97" number="10" to="-198" type="car" />
	<flow begin="540" departLane="best" departSpeed="max" end="600" from="-94#1" id="98" number="3" to="-128#2" type="car" />
	<flow begin="540" departLane="best" departSpeed="max" end="600" from="-155" id="99" number="1" to="-77" type="car" />
	<flow begin="540" departLane="best" departSpeed="max" end="600" from="-155" id="100" number="26" to="-89" type="car" />
	<flow begin="540" departLane="best" departSpeed="max" end="600" from="-155" id="101" number="9" to="-128#2" type="car" />
	<flow begin="540" departLane="best" departSpeed="max" end="600" from="-103" id="102" number="1" to="-128#2" type="car" />
	<flow begin="600" departLane="best" departSpeed="max" end="660" from="60" id="103" number="3" to="-77" type="car" />
	<flow begin="600" departLane="best" departSpeed="max" end="660" from="60" id="104" number="10" to="-89" type="car" />
	<flow begin="600" departLane="best" departSpeed="max" end="660" from="-94#1" id="105" number="1" to="-77" type="car" />
	<flow begin="600" departLane="best" departSpeed="max" end="660" from="-94#1" id="106" number="20" to="-198" type="car" />
	<flow begin="600" departLane="best" departSpeed="max" end="660" from="-94#1" id="107" number="1" to="-89" type="car" />
	<flow begin="600" departLane="best" departSpeed="max" end="660" from="-94#1" id="108" number="16" to="-128#2" type="car" />
	<flow begin="600" departLane="best" departSpeed="max" end="660" from="-155" id="109" number="2" to="-77" type="car" />
	<flow begin="600" departLane="best" departSpeed="max" end="660" from="-155" id="110" number="15" to="-89" type="car" />
	<flow begin="600" departLane="best" departSpeed="max" end="660" from="-155" id="111" number="4" to="-128#2" type="car" />
	<flow begin="600" departLane="best" departSpeed="max" end="660" from="-103" id="112" number="3" to="-89" type="car" />
	<flow begin="600" departLane="best" departSpeed="max" end="660" from="-103" id="113" number="15" to="-128#2" type="car" />
	<flow begin="660" departLane="best" departSpeed="max" end="720" from="60" id="114" number="22" to="-77" type="car" />
	<flow begin="660" departLane="best" departSpeed="max" end="720" from="60" id="115" number="14" to="-198" type="car" />
	<flow begin="660" departLane="best" departSpeed="max" end="720" from="60" id="116" number="19" to="-89" type="car" />
	<flow begin="660" departLane="best" departSpeed="max" end="720" from="60" id="117" number="1" to="-128#2" type="car" />
	<flow begin="660" departLane="best" departSpeed="max" end="720" from="-94#1" id="118" number="4" to="-198" type="car" />
	<flow begin="660" departLane="best" departSpeed="max" end="720" from="-94#1" id="119" number="5" to="-128#2" type="car" />
	<flow begin="660" departLane="best" departSpeed="max" end="720" from="-155" id="120" number="2" to="-77" type="car" />
	<flow begin="660" departLane="best" departSpeed="max" end="720" from="-155" id="121" number="5" to="-128#2" type="car" />
	<flow begin="660" departLane="best" departSpeed="max" end="720" from="-103" id="122" number="4" to="-89" type="car" />
	<flow begin="660" departLane="best" departSpeed="max" end="720" from="-103" id="123" number="13" to="-128#2" type="car" />
	<flow begin="720" departLane="best" departSpeed="max" end="780" from="60" id="124" number="2" to="-77" type="car" />
	<flow begin="720" departLane="best" departSpeed="max" end="780" from="60" id="125" number="15" to="-198" type="car" />
	<flow begin="720" departLane="best" departSpeed="max" end="780" from="60" id="126" number="5" to="-89" type="car" />
	<flow begin="720" departLane="best" departSpeed="max" end="780" from="-94#1" id="127" number="2" to="-77" type="car" />
	<flow begin="720" departLane="best" departSpeed="max" end="780" from="-94#1" id="128" number="17" to="-198" type="car" />
	<flow begin="720" departLane="best" departSpeed="max" end="780" from="-94#1" id="129" number="3" to="-128#2" type="car" />
	<flow begin="720" departLane="best" departSpeed="max" end="780" from="-155" id="130" number="26" to="-89" type="car" />
	<flow begin="720" departLane="best" departSpeed="max" end="780" from="-155" id="131" number="6" to="-128#2" type="car" />
	<flow begin="720" departLane="best" departSpeed="max" end="780" from="-103" id="132" number="4" to="-128#2" type="car" />
	<flow begin="780" departLane="best" departSpeed="max" end="840" from="60" id="133" number="4" to="-89" type="car" />
	<flow begin="780" departLane="best" departSpeed="max" end="840" from="-94#1" id="134" number="2" to="-77" type="car" />
	<flow begin="780" departLane="best" departSpeed="max" end="840" from="-94#1" id="135" number="11" to="-198" type="car" />
	<flow begin="780" departLane="best" departSpeed="max" end="840" from="-94#1" id="136" number="11" to="-128#2" type="car" />
	<flow begin="780" departLane="best" departSpeed="max" end="840" from="-155" id="137" number="3" to="-128#2" type="car" />
	<flow begin="780" departLane="best" departSpeed="max" end="840" from="-103" id="138" number="3" to="-89" type="car" />
	<flow begin="780" departLane="best" departSpeed="max" end="840" from="-103" id="139" number="7" to="-128#2" type="car" />
	<flow begin="840" departLane="best" departSpeed="max" end="900" from="60" id="140" number="22" to="-77" type="car" />
	<flow begin="840" departLane="best" departSpeed="max" end="900" from="60" id="141" number="5" to="-198" type="car" />
	<flow begin="840" departLane="best" departSpeed="max" end="900" from="60" id="142" number="11" to="-89" type="car" />
	<flow begin="840" departLane="best" departSpeed="max" end="900" from="60" id="143" number="1" to="-128#2" type="car" />
	<flow begin="840" departLane="best" departSpeed="max" end="900" from="-155" id="144" number="7" to="-128#2" type="car" />
	<flow begin="840" departLane="best" departSpeed="max" end="900" from="-103" id="145" number="2" to="-198" type="car" />
	<flow begin="840" departLane="best" departSpeed="max" end="900" from="-103" id="146" number="2" to="-89" type="car" />
	<flow begin="840" departLane="best" departSpeed="max" end="900" from="-103" id="147" number="12" to="-128#2" type="car" />
</routes>
