<routes>
	<trip arrivalPos="133.24418209634337" depart="0" departLane="best" departPos="8.944173359333828" departSpeed="0.0402222222222222" from="374712321#2.367" id="1" to="131279242#7.40.72" type="passenger" />
	<trip arrivalPos="134.6659537842688" depart="0" departLane="best" departPos="330.26246203366384" departSpeed="0.0130555555555555" from="392530462#1" id="147" to="131279242#7.40.72" type="passenger" />
	<trip arrivalPos="24.59469665509912" depart="0" departLane="best" departPos="53.74" departSpeed="0.0218055555555555" from="492311562#2.494" id="148" to="492311556#2" type="passenger" />
	<trip arrivalPos="25.447877372141186" depart="0" departLane="best" departPos="53.74" departSpeed="0.2267777777777777" from="492311562#2.494" id="149" to="492311556#2" type="passenger" />
	<trip arrivalPos="18.50941452628309" depart="0" departLane="best" departPos="11.894114220950616" departSpeed="0.0869722222222222" from="128009952#0.1549" id="151" to="911706846.55" type="passenger" />
	<trip arrivalPos="26.983068889329065" depart="0" departLane="best" departPos="39.13333325691151" departSpeed="0.0186666666666666" from="492311562#2.494" id="152" to="492311556#2" type="passenger" />
	<trip arrivalPos="29.11120351441234" depart="0" departLane="best" departPos="28.00513327059477" departSpeed="0.0383888888888888" from="392530462#1.386" id="153" to="492311556#2" type="passenger" />
	<trip arrivalPos="22.164510355320385" depart="0" departLane="best" departPos="966.6176861537248" departSpeed="0.0215277777777777" from="131279242#0" id="154" to="131279242#0.1020.71" type="passenger" />
	<trip arrivalPos="28.65702001492968" depart="0" departLane="best" departPos="1041.418656658636" departSpeed="4.186249999999999" from="131279242#0" id="155" to="492311556#2" type="passenger" />
	<trip arrivalPos="23.30000796788912" depart="0" departLane="best" departPos="49.21832865059621" departSpeed="4.801" from="131279242#4.80" id="156" to="911706846.55" type="passenger" />
	<trip arrivalPos="28.67666644185736" depart="0" departLane="best" departPos="46.021773432335166" departSpeed="0.0196111111111111" from="492311562#2.494" id="157" to="492311556#2" type="passenger" />
	<trip arrivalPos="29.46993738086643" depart="0" departLane="best" departPos="2.5" departSpeed="0.0860833333333333" from="392530462#1.320" id="145" to="492311556#2" type="passenger" />
	<trip arrivalPos="69.00417398999836" depart="0" departLane="best" departPos="15.395103145408022" departSpeed="0.1871666666666666" from="374707236#0.1602" id="158" to="-374712321#2" type="passenger" />
	<trip arrivalPos="85.93062315753536" depart="0" departLane="best" departPos="24.97163056048553" departSpeed="0.3211666666666666" from="374707236#0.1602" id="160" to="392530441.113" type="passenger" />
	<trip arrivalPos="16.408322543662074" depart="0" departLane="best" departPos="5.991583373129044" departSpeed="6.457583333333333" from="131279242#0.1020" id="161" to="131279242#7" type="passenger" />
	<trip arrivalPos="28.770697183336523" depart="0" departLane="best" departPos="349.1232860943468" departSpeed="0.0216944444444444" from="392530462#1" id="163" to="492311556#2" type="passenger" />
	<trip arrivalPos="5.369095152047076" depart="0" departLane="best" departPos="11.90154951289794" departSpeed="0.0494444444444444" from="128009952#0.1549" id="166" to="911706846.55" type="truck" />
	<trip arrivalPos="24.235892560180915" depart="0" departLane="best" departPos="29.05" departSpeed="0.5258055555555555" from="128009952#0.1503" id="167" to="911706846.55" type="passenger" />
	<trip arrivalPos="130.4153074274176" depart="0" departLane="best" departPos="12.6915308150889" departSpeed="11.240361111111111" from="131279242#7.40.72" id="168" to="131279242#7.40.72" type="passenger" />
	<trip arrivalPos="22.245564586591343" depart="0" departLane="best" departPos="3049.31" departSpeed="4.971305555555555" from="492311567#0" id="169" to="131279242#7.40.72" type="truck" />
	<trip arrivalPos="4.1929657535402605" depart="0" departLane="best" departPos="343.5266315272178" departSpeed="0.3275" from="392530462#1" id="170" to="911706840#2" type="passenger" />
	<trip arrivalPos="117.54823454850792" depart="0" departLane="best" departPos="270.2546142720372" departSpeed="0.0176111111111111" from="392530462#1" id="172" to="131279242#7.40.72" type="passenger" />
	<trip arrivalPos="94.91369469705366" depart="0" departLane="best" departPos="354.63373960393875" departSpeed="0.0178888888888888" from="392530462#1" id="173" to="71284490#1" type="passenger" />
	<trip arrivalPos="4.243368345071648" depart="0" departLane="best" departPos="7.807402507807962" departSpeed="5.385611111111111" from="131279242#0.1020.71" id="159" to="131279242#2.55" type="passenger" />
	<trip arrivalPos="26.700866101913466" depart="0" departLane="best" departPos="23.50872266068593" departSpeed="0.0154444444444444" from="492311562#3" id="174" to="492311556#2" type="passenger" />
	<trip arrivalPos="31.43582083593457" depart="0" departLane="best" departPos="19.532148158457296" departSpeed="0.0174722222222222" from="492311562#3" id="144" to="492311556#2" type="passenger" />
	<trip arrivalPos="89.75267705481328" depart="0" departLane="best" departPos="24.91186487264224" departSpeed="0.0178333333333333" from="392530462#1.386" id="140" to="71284490#1" type="passenger" />
	<trip arrivalPos="89.06600472438346" depart="0" departLane="best" departPos="353.3754963491" departSpeed="0.0205277777777777" from="392530462#1" id="113" to="392530441.113" type="passenger" />
	<trip arrivalPos="24.80998106174612" depart="0" departLane="best" departPos="48.04882319538665" departSpeed="6.071583333333334" from="131279242#4" id="114" to="911706846.55" type="passenger" />
	<trip arrivalPos="125.9894246669994" depart="0" departLane="best" departPos="964.250151091836" departSpeed="0.0186111111111111" from="131279242#0" id="115" to="131279242#7.40.72" type="passenger" />
	<trip arrivalPos="23.14210160311757" depart="0" departLane="best" departPos="992.829115296568" departSpeed="0.0175833333333333" from="131279242#0" id="116" to="131279242#0.1020.71" type="passenger" />
	<trip arrivalPos="74.36977547068685" depart="0" departLane="best" departPos="222.4373172324368" departSpeed="0.0174166666666666" from="392530462#1" id="117" to="71284490#1" type="passenger" />
	<trip arrivalPos="84.11147436823512" depart="0" departLane="best" departPos="240.0798651700581" departSpeed="0.0194444444444444" from="392530462#1" id="118" to="392530441.113" type="passenger" />
	<trip arrivalPos="88.18954965618047" depart="0" departLane="best" departPos="276.4416342180156" departSpeed="0.0170277777777777" from="392530462#1" id="119" to="71284490#1" type="passenger" />
	<trip arrivalPos="128.68649553978165" depart="0" departLane="best" departPos="26.75362143963387" departSpeed="0.0158055555555555" from="492311562#3" id="120" to="131279242#7.40.72" type="passenger" />
	<trip arrivalPos="104.6687047991371" depart="0" departLane="best" departPos="371.4484595278254" departSpeed="0.0185833333333333" from="374712321#2" id="122" to="131279242#7.40.72" type="passenger" />
	<trip arrivalPos="2.5" depart="0" departLane="best" departPos="262.2356742844032" departSpeed="0.1010555555555555" from="392530462#1" id="123" to="392530462#1.386" type="passenger" />
	<trip arrivalPos="24.95722651712644" depart="0" departLane="best" departPos="364.691996039896" departSpeed="0.0943611111111111" from="392530462#1" id="141" to="492311556#2" type="passenger" />
	<trip arrivalPos="87.63965142290755" depart="0" departLane="best" departPos="23.640122596087" departSpeed="0.2889722222222222" from="911706840#5.92" id="124" to="392530441.113" type="passenger" />
	<trip arrivalPos="130.9151684313819" depart="0" departLane="best" departPos="20.96236700535957" departSpeed="4.936083333333333" from="128009952#0.1503" id="127" to="131279242#7.40.72" type="passenger" />
	<trip arrivalPos="87.82999650607658" depart="0" departLane="best" departPos="10.148606247775774" departSpeed="0.0143055555555555" from="911706840#5.92" id="131" to="392530441.113" type="passenger" />
	<trip arrivalPos="93.5539510440098" depart="0" departLane="best" departPos="350.6276272332562" departSpeed="0.0176388888888888" from="392530462#1" id="132" to="392530441.113" type="passenger" />
	<trip arrivalPos="10.657195681485844" depart="0" departLane="best" departPos="8.340336269290805" departSpeed="5.356527777777778" from="131279242#5" id="133" to="911706846.55" type="passenger" />
	<trip arrivalPos="26.158333569536413" depart="0" departLane="best" departPos="13.802683456144136" departSpeed="0.0166944444444444" from="492311562#3" id="134" to="492311556#2" type="passenger" />
	<trip arrivalPos="128.48281808764017" depart="0" departLane="best" departPos="20.471438215480017" departSpeed="0.0168611111111111" from="492311562#3" id="135" to="131279242#7.40.72" type="passenger" />
	<trip arrivalPos="29.72671682576088" depart="0" departLane="best" departPos="53.74" departSpeed="0.0283333333333333" from="492311562#2.494" id="136" to="492311556#2" type="passenger" />
	<trip arrivalPos="22.19875085688553" depart="0" departLane="best" departPos="11.94837175471996" departSpeed="0.0621944444444444" from="392530462#1.386" id="137" to="492311556#2" type="passenger" />
	<trip arrivalPos="27.391159911817688" depart="0" departLane="best" departPos="19.524356452306" departSpeed="0.1003611111111111" from="392530462#1.386" id="138" to="492311556#2" type="passenger" />
	<trip arrivalPos="74.21886649887338" depart="0" departLane="best" departPos="5.379914424009226" departSpeed="0.0147777777777777" from="392530462#1.386" id="139" to="71284490#1" type="passenger" />
	<trip arrivalPos="91.22260193116404" depart="0" departLane="best" departPos="312.04943087973413" departSpeed="0.1169722222222222" from="392530462#1" id="125" to="392530441.113" type="passenger" />
	<trip arrivalPos="136.78299611166955" depart="0" departLane="best" departPos="25.91586316437557" departSpeed="8.294333333333332" from="131279242#4.80" id="175" to="131279242#7.40.72" type="passenger" />
	<trip arrivalPos="11.64" depart="0" departLane="best" departPos="9.450597992822123" departSpeed="7.018583333333333" from="131279242#0.1020" id="176" to="131279242#2.5" type="passenger" />
	<trip arrivalPos="119.64764033764352" depart="0" departLane="best" departPos="7.88" departSpeed="11.511527777777776" from="131279242#7.40" id="177" to="131279242#7.40.72" type="passenger" />
	<trip arrivalPos="94.5079482916126" depart="0" departLane="best" departPos="362.9086965965684" departSpeed="0.0127222222222222" from="392530462#1" id="217" to="392530441.113" type="passenger" />
	<trip arrivalPos="118.91735329894324" depart="0" departLane="best" departPos="2.5" departSpeed="9.71811111111111" from="131279242#5" id="218" to="131279242#7.40.72" type="passenger" />
	<trip arrivalPos="127.36989737760058" depart="0" departLane="best" departPos="78.92986006220941" departSpeed="5.766972222222222" from="131279242#4.80" id="220" to="131279242#7.40.72" type="passenger" />
	<trip arrivalPos="87.71476057027333" depart="0" departLane="best" departPos="2.5" departSpeed="0.0174444444444444" from="392530462#1.386" id="221" to="71284490#1" type="passenger" />
	<trip arrivalPos="90.3511976896882" depart="0" departLane="best" departPos="2.5" departSpeed="0.5205833333333334" from="911706840#5.92" id="222" to="392530441.113" type="passenger" />
	<trip arrivalPos="83.60773203168007" depart="0" departLane="best" departPos="2.5" departSpeed="0.0182777777777777" from="392530462#1.386" id="224" to="392530441.113" type="passenger" />
	<trip arrivalPos="72.37644240119471" depart="0" departLane="best" departPos="2.5" departSpeed="0.0155277777777777" from="392530462#1.320" id="225" to="71284490#1" type="passenger" />
	<trip arrivalPos="128.67907395614094" depart="0" departLane="best" departPos="44.80366459763304" departSpeed="9.146194444444443" from="131279242#4.80" id="226" to="131279242#7.40.72" type="passenger" />
	<trip arrivalPos="76.2204349296733" depart="0" departLane="best" departPos="304.9375031301847" departSpeed="0.0160555555555555" from="392530462#1" id="227" to="490367388#2" type="passenger" />
	<trip arrivalPos="15.066061130404568" depart="0" departLane="best" departPos="21.96797376319431" departSpeed="2.188194444444445" from="492311567#0.3049" id="228" to="131279242#5" type="passenger" />
	<trip arrivalPos="28.079417520213024" depart="0" departLane="best" departPos="4.170531077032232" departSpeed="0.0141666666666666" from="392530462#1.386" id="216" to="492311556#2" type="passenger" />
	<trip arrivalPos="25.147143001157986" depart="0" departLane="best" departPos="3.0" departSpeed="0.0826666666666666" from="392530462#1.320" id="229" to="492311556#2" type="passenger" />
	<trip arrivalPos="84.05539480919201" depart="0" departLane="best" departPos="320.2672231333298" departSpeed="0.0173055555555555" from="392530462#1" id="231" to="392530441.113" type="passenger" />
	<trip arrivalPos="78.27781352445434" depart="0" departLane="best" departPos="14.902894854717193" departSpeed="0.0128055555555555" from="392530462#1.386" id="232" to="71284490#1" type="passenger" />
	<trip arrivalPos="48.71759621268004" depart="0" departLane="best" departPos="360.42042774868247" departSpeed="0.0176666666666666" from="392530462#1" id="233" to="392530441.113" type="passenger" />
	<trip arrivalPos="31.08427356304163" depart="0" departLane="best" departPos="321.49205425080106" departSpeed="0.0143611111111111" from="392530462#1" id="234" to="492311556#2" type="passenger" />
	<trip arrivalPos="121.2513741766445" depart="0" departLane="best" departPos="61.81032235826462" departSpeed="8.654055555555555" from="131279242#4.80" id="235" to="131279242#7.40.72" type="passenger" />
	<trip arrivalPos="128.03245770301308" depart="0" departLane="best" departPos="7.41825434146587" departSpeed="6.348833333333332" from="131279242#5" id="236" to="131279242#7.40.72" type="passenger" />
	<trip arrivalPos="88.54249115766888" depart="0" departLane="best" departPos="364.9068303988416" departSpeed="0.0162777777777777" from="392530462#1" id="237" to="71284490#1" type="passenger" />
	<trip arrivalPos="7.970348247515451" depart="0" departLane="best" departPos="52.82339589829962" departSpeed="0.0215833333333333" from="492311562#2.494" id="238" to="492311556#1" type="passenger" />
	<trip arrivalPos="88.5881257859057" depart="0" departLane="best" departPos="11.83600474190853" departSpeed="5.3060833333333335" from="131279242#0.1020.71" id="240" to="71284490#1" type="passenger" />
	<trip arrivalPos="24.655708991717" depart="0" departLane="best" departPos="93.46537923930232" departSpeed="7.757027777777777" from="131279242#4.80" id="244" to="492311556#2" type="passenger" />
	<trip arrivalPos="127.31727050889916" depart="0" departLane="best" departPos="22.991014176471094" departSpeed="11.170527777777778" from="131279242#7" id="230" to="131279242#7.40.72" type="passenger" />
	<trip arrivalPos="73.94661832581048" depart="0" departLane="best" departPos="318.4705862985954" departSpeed="0.0167777777777777" from="392530462#1" id="214" to="490367388#2" type="passenger" />
	<trip arrivalPos="112.18854772056407" depart="0" departLane="best" departPos="71.23651050674856" departSpeed="7.978111111111111" from="131279242#4.80" id="213" to="131279242#7.40.72" type="passenger" />
	<trip arrivalPos="26.818434884134444" depart="0" departLane="best" departPos="64.95207983727131" departSpeed="6.001944444444444" from="131279242#4.80" id="212" to="911706846.55" type="passenger" />
	<trip arrivalPos="124.89887899891124" depart="0" departLane="best" departPos="4.420263077832522" departSpeed="12.86372222222222" from="131279242#7.40.72" id="178" to="131279242#7.40.72" type="passenger" />
	<trip arrivalPos="129.1897374651236" depart="0" departLane="best" departPos="10.418387403206136" departSpeed="12.425416666666663" from="131279242#4.80" id="179" to="131279242#7.40.72" type="passenger" />
	<trip arrivalPos="8.814046707952565" depart="0" departLane="best" departPos="287.5492238709094" departSpeed="0.1181388888888888" from="392530462#1" id="180" to="392530462#1.386" type="passenger" />
	<trip arrivalPos="11.64" depart="0" departLane="best" departPos="989.8557789402578" departSpeed="0.0155277777777777" from="131279242#0" id="182" to="131279242#2.5" type="passenger" />
	<trip arrivalPos="97.65766051577138" depart="0" departLane="best" departPos="302.1364815138673" departSpeed="0.0131111111111111" from="392530462#1" id="185" to="71284490#1" type="passenger" />
	<trip arrivalPos="91.19606594865294" depart="0" departLane="best" departPos="311.3661854580432" departSpeed="0.0142222222222222" from="392530462#1" id="187" to="71284490#1" type="passenger" />
	<trip arrivalPos="131.2073634585199" depart="0" departLane="best" departPos="356.8145887971596" departSpeed="0.0484444444444444" from="392530462#1" id="188" to="131279242#7.40.72" type="passenger" />
	<trip arrivalPos="15.866569300212092" depart="0" departLane="best" departPos="296.27878901377585" departSpeed="0.0481388888888888" from="392530462#1" id="189" to="392530462#1.386" type="passenger" />
	<trip arrivalPos="126.70984767707826" depart="0" departLane="best" departPos="44.88384122514472" departSpeed="10.238638888888888" from="131279242#4.80" id="190" to="131279242#7.40.72" type="passenger" />
	<trip arrivalPos="26.67681839137121" depart="0" departLane="best" departPos="2.5" departSpeed="0.1701111111111111" from="128009952#0.1549" id="191" to="911706846.55" type="passenger" />
	<trip arrivalPos="87.26529824150133" depart="0" departLane="best" departPos="296.2696434617541" departSpeed="0.0173333333333333" from="392530462#1" id="192" to="392530441.113" type="passenger" />
	<trip arrivalPos="93.7168449259989" depart="0" departLane="best" departPos="328.4898129339241" departSpeed="0.0162777777777777" from="392530462#1" id="193" to="392530441.113" type="passenger" />
	<trip arrivalPos="25.11850345685467" depart="0" departLane="best" departPos="2.5" departSpeed="0.10275" from="128009952#0.1549" id="194" to="911706846.55" type="passenger" />
	<trip arrivalPos="78.08678183947787" depart="0" departLane="best" departPos="332.97676437558687" departSpeed="0.0173611111111111" from="392530462#1" id="195" to="490367388#2" type="passenger" />
	<trip arrivalPos="24.923185404719707" depart="0" departLane="best" departPos="2.5" departSpeed="0.0181944444444444" from="392530462#1.386" id="196" to="492311556#2" type="passenger" />
	<trip arrivalPos="121.98188981856948" depart="0" departLane="best" departPos="2.5" departSpeed="6.932777777777777" from="131279242#4" id="199" to="131279242#7.40.72" type="passenger" />
	<trip arrivalPos="126.94133451098864" depart="0" departLane="best" departPos="64.41699414044746" departSpeed="5.526861111111111" from="131279242#4.80" id="200" to="131279242#7.40.72" type="passenger" />
	<trip arrivalPos="89.65513378544752" depart="0" departLane="best" departPos="342.9870994209191" departSpeed="0.0138611111111111" from="392530462#1" id="201" to="71284490#1" type="passenger" />
	<trip arrivalPos="117.46418676814372" depart="0" departLane="best" departPos="30.37" departSpeed="10.60436111111111" from="131279242#7" id="202" to="131279242#7.40.72" type="passenger" />
	<trip arrivalPos="127.56605899740327" depart="0" departLane="best" departPos="2.5" departSpeed="5.549111111111111" from="131279242#0.1020" id="204" to="131279242#7.40.72" type="passenger" />
	<trip arrivalPos="95.35741489956312" depart="0" departLane="best" departPos="3.589019260188796" departSpeed="0.0167222222222222" from="911706840#5.92" id="207" to="392530441.113" type="passenger" />
	<trip arrivalPos="119.36093379319227" depart="0" departLane="best" departPos="59.54569468953963" departSpeed="5.971916666666666" from="131279242#4" id="209" to="131279242#7.40.72" type="passenger" />
	<trip arrivalPos="122.87944022204796" depart="0" departLane="best" departPos="50.00583767600942" departSpeed="8.31161111111111" from="131279242#4" id="211" to="131279242#7.40.72" type="passenger" />
	<trip arrivalPos="27.530165828385485" depart="0" departLane="best" departPos="8.432427497071725" departSpeed="7.947694444444444" from="131279242#4.80" id="112" to="911706846.55" type="passenger" />
	<trip arrivalPos="72.04683466273352" depart="0" departLane="best" departPos="2.5" departSpeed="0.0141944444444444" from="374707236#0.1602" id="111" to="-374712321#2" type="passenger" />
	<trip arrivalPos="92.36634566411432" depart="0" departLane="best" departPos="2.5" departSpeed="0.0204722222222222" from="392530462#1.320" id="130" to="71284490#1" type="passenger" />
	<trip arrivalPos="93.70834220167866" depart="0" departLane="best" departPos="326.0182165534689" departSpeed="0.0130555555555555" from="392530462#1" id="109" to="392530441.113" type="passenger" />
	<trip arrivalPos="10.4832749807893" depart="0" departLane="best" departPos="965.5424851107596" departSpeed="0.018" from="131279242#0" id="34" to="131279242#0.1020.71" type="passenger" />
	<trip arrivalPos="103.491855397808" depart="0" departLane="best" departPos="2.5" departSpeed="8.652666666666667" from="131279242#4" id="35" to="131279242#7.40.72" type="passenger" />
	<trip arrivalPos="22.966644222628364" depart="0" departLane="best" departPos="971.2215801934236" departSpeed="0.0188333333333333" from="131279242#0" id="36" to="131279242#0.1020.71" type="passenger" />
	<trip arrivalPos="2.5" depart="0" departLane="best" departPos="6.448505116204741" departSpeed="5.9928333333333335" from="131279242#0.1020.71" id="37" to="131279242#2.55" type="passenger" />
	<trip arrivalPos="93.5816408197134" depart="0" departLane="best" departPos="7.74110084679768" departSpeed="0.0158888888888888" from="392530462#1.386" id="38" to="392530441.113" type="passenger" />
	<trip arrivalPos="11.64" depart="0" departLane="best" departPos="2.5" departSpeed="4.772" from="131279242#0.1020" id="40" to="131279242#2.5" type="passenger" />
	<trip arrivalPos="89.90421123534254" depart="0" departLane="best" departPos="2.5" departSpeed="0.0153333333333333" from="392530462#1.386" id="41" to="392530441.113" type="passenger" />
	<trip arrivalPos="2.527054123228657" depart="0" departLane="best" departPos="1009.1582523353212" departSpeed="0.0371666666666666" from="131279242#0" id="42" to="131279242#2.5" type="passenger" />
	<trip arrivalPos="125.19328786780518" depart="0" departLane="best" departPos="35.493931404181964" departSpeed="5.697305555555555" from="131279242#4" id="43" to="131279242#7.40.72" type="passenger" />
	<trip arrivalPos="17.51662334916184" depart="0" departLane="best" departPos="983.6123846539704" departSpeed="0.0174722222222222" from="131279242#0" id="44" to="131279242#0.1020.71" type="passenger" />
	<trip arrivalPos="127.22079393215448" depart="0" departLane="best" departPos="83.21779025049848" departSpeed="9.812805555555554" from="131279242#4.80" id="45" to="131279242#7.40.72" type="passenger" />
	<trip arrivalPos="133.71615150158962" depart="0" departLane="best" departPos="41.03567052143519" departSpeed="5.969416666666667" from="131279242#4.80" id="33" to="131279242#7.40.72" type="passenger" />
	<trip arrivalPos="117.5674151611861" depart="0" departLane="best" departPos="81.69281386004323" departSpeed="7.849027777777778" from="131279242#4.80" id="47" to="131279242#7.40.72" type="passenger" />
	<trip arrivalPos="88.55160437684218" depart="0" departLane="best" departPos="48.35708411303427" departSpeed="9.2045" from="911706840#1" id="49" to="392530441.113" type="passenger" />
	<trip arrivalPos="51.968344171628246" depart="0" departLane="best" departPos="11.128782616499908" departSpeed="2.761111111111111" from="492311567#0.3049" id="51" to="131279242#7.40.72" type="passenger" />
	<trip arrivalPos="82.60631970294004" depart="0" departLane="best" departPos="379.78" departSpeed="0.0178888888888888" from="374712321#2" id="52" to="490367388#2" type="passenger" />
	<trip arrivalPos="120.67786683904444" depart="0" departLane="best" departPos="29.00818852332116" departSpeed="6.482388888888889" from="131279242#4.80" id="53" to="131279242#7.40.72" type="passenger" />
	<trip arrivalPos="59.49586460045678" depart="0" departLane="best" departPos="2.5" departSpeed="3.5421388888888887" from="131279242#4.80" id="54" to="911706840#2" type="passenger" />
	<trip arrivalPos="5.184992899720553" depart="0" departLane="best" departPos="1039.208960013268" departSpeed="2.525416666666666" from="131279242#0" id="55" to="131279242#5" type="passenger" />
	<trip arrivalPos="85.67753618652326" depart="0" departLane="best" departPos="11.46796046677625" departSpeed="2.06525" from="911706840#5.92" id="56" to="392530441.113" type="passenger" />
	<trip arrivalPos="90.76573905330454" depart="0" departLane="best" departPos="73.61305218809494" departSpeed="9.285444444444444" from="911706840#1" id="57" to="392530441.113" type="passenger" />
	<trip arrivalPos="24.40679753994596" depart="0" departLane="best" departPos="979.2094002002028" departSpeed="0.0179166666666666" from="131279242#0" id="58" to="131279242#0.1020.71" type="passenger" />
	<trip arrivalPos="27.700004891432137" depart="0" departLane="best" departPos="62.8410499768715" departSpeed="8.059472222222222" from="131279242#4" id="59" to="131279242#7.40.72" type="passenger" />
	<trip arrivalPos="6.389461532313214" depart="0" departLane="best" departPos="1031.0943330220905" departSpeed="3.420333333333333" from="131279242#0" id="60" to="131279242#2" type="passenger" />
	<trip arrivalPos="88.16910273924587" depart="0" departLane="best" departPos="17.588934761150497" departSpeed="0.01375" from="911706840#5.92" id="48" to="392530441.113" type="passenger" />
	<trip arrivalPos="89.79620925667298" depart="0" departLane="best" departPos="360.6667621561002" departSpeed="0.01625" from="392530462#1" id="61" to="71284490#1" type="passenger" />
	<trip arrivalPos="129.7684244705277" depart="0" departLane="best" departPos="94.13005356470794" departSpeed="9.114027777777777" from="131279242#4.80" id="32" to="131279242#7.40.72" type="passenger" />
	<trip arrivalPos="11.64" depart="0" departLane="best" departPos="1022.0567082683374" departSpeed="0.7639444444444444" from="131279242#0" id="30" to="131279242#2.5" type="passenger" />
	<trip arrivalPos="22.628422911125465" depart="0" departLane="best" departPos="20.29581855241308" departSpeed="5.139916666666666" from="131279242#4.80" id="2" to="911706846.55" type="passenger" />
	<trip arrivalPos="130.38462446300682" depart="0" departLane="best" departPos="65.34" departSpeed="4.4975" from="131279242#4" id="3" to="131279242#7.40.72" type="passenger" />
	<trip arrivalPos="82.07205496982863" depart="0" departLane="best" departPos="373.0302232040347" departSpeed="0.4313888888888889" from="374712321#2" id="4" to="490367388#2" type="truck" />
	<trip arrivalPos="95.9072928911232" depart="0" departLane="best" departPos="3.0" departSpeed="0.9987777777777778" from="392530462#1.320" id="5" to="71284490#1" type="truck" />
	<trip arrivalPos="21.63871220504956" depart="0" departLane="best" departPos="13.355426224701064" departSpeed="6.139694444444444" from="131279242#4" id="8" to="911706846.55" type="passenger" />
	<trip arrivalPos="82.88654504773493" depart="0" departLane="best" departPos="999.6556050726869" departSpeed="0.0183055555555555" from="131279242#0" id="9" to="71284490#1" type="passenger" />
	<trip arrivalPos="26.36288103796495" depart="0" departLane="best" departPos="11.933530372475394" departSpeed="3.9035" from="131279242#4.80" id="10" to="911706846.55" type="passenger" />
	<trip arrivalPos="24.86799547143601" depart="0" departLane="best" departPos="32.93324952777541" departSpeed="5.412805555555556" from="131279242#4" id="11" to="911706846.55" type="passenger" />
	<trip arrivalPos="18.588376716850583" depart="0" departLane="best" departPos="6.068640858618837" departSpeed="5.377138888888889" from="131279242#4" id="12" to="911706846.55" type="passenger" />
	<trip arrivalPos="61.07" depart="0" departLane="best" departPos="26.91237412805921" departSpeed="6.122861111111111" from="131279242#4" id="13" to="911706840#2" type="passenger" />
	<trip arrivalPos="71.78689266845527" depart="0" departLane="best" departPos="53.9164797224807" departSpeed="0.0158888888888888" from="911706840#2" id="15" to="490367388#2" type="passenger" />
	<trip arrivalPos="135.62935394824163" depart="0" departLane="best" departPos="2.5" departSpeed="6.102027777777778" from="131279242#5" id="31" to="131279242#7.40.72" type="passenger" />
	<trip arrivalPos="21.02626536023901" depart="0" departLane="best" departPos="1022.819827709582" departSpeed="0.5188333333333333" from="131279242#0" id="16" to="131279242#0.1020.71" type="passenger" />
	<trip arrivalPos="30.37" depart="0" departLane="best" departPos="7.718132662237648" departSpeed="7.579861111111112" from="131279242#0.1020.71" id="18" to="131279242#7" type="passenger" />
	<trip arrivalPos="11.64" depart="0" departLane="best" departPos="1027.297254844735" departSpeed="1.8758333333333328" from="131279242#0" id="19" to="131279242#2.5" type="passenger" />
	<trip arrivalPos="95.88047151502552" depart="0" departLane="best" departPos="1029.7793376024958" departSpeed="2.567055555555556" from="131279242#0" id="20" to="71284490#1" type="passenger" />
	<trip arrivalPos="94.74266630319782" depart="0" departLane="best" departPos="23.075743164931144" departSpeed="9.242555555555557" from="911706840#2" id="21" to="71284490#1" type="passenger" />
	<trip arrivalPos="11.64" depart="0" departLane="best" departPos="28.932604398731595" departSpeed="5.3365277777777775" from="131279242#0.1020" id="22" to="131279242#2.5" type="passenger" />
	<trip arrivalPos="130.60678468640288" depart="0" departLane="best" departPos="22.35851253852354" departSpeed="7.403305555555556" from="131279242#0.1020" id="23" to="131279242#7.40.72" type="passenger" />