<?xml version="1.0" encoding="UTF-8"?>

<!-- generated on 2024-08-01 11:21:21 by Eclipse SUMO netedit Version 1.18.0
<configuration xmlns:xsi="http://www.w3.org/2001/XMLSchema-instance" xsi:noNamespaceSchemaLocation="http://sumo.dlr.de/xsd/neteditConfiguration.xsd">

    <input>
        <additional-files value="D:\SEU\TLab\华为三期\songshanhu\taizhong-6-5-wanshang-4-15-ganxian\e2_2.add.xml"/>
        <sumo-net-file value="D:\SEU\TLab\华为三期\songshanhu\taizhong-6-5-wanshang-4-15-ganxian\taizhong_6.25.net.xml"/>
    </input>

    <output>
        <output-file value="D:\SEU\TLab\华为三期\songshanhu\taizhong-6-5-wanshang-4-15-ganxian\taizhong_6.25.net.xml"/>
    </output>

    <processing>
        <geometry.min-radius.fix.railways value="false"/>
        <geometry.max-grade.fix value="false"/>
        <offset.disable-normalization value="true"/>
        <lefthand value="0"/>
    </processing>

    <junctions>
        <no-turnarounds value="true"/>
        <junctions.corner-detail value="5"/>
        <junctions.limit-turn-speed value="5.50"/>
        <rectangular-lane-cut value="0"/>
    </junctions>

    <pedestrian>
        <walkingareas value="0"/>
    </pedestrian>

</configuration>
-->

<net version="1.16" junctionCornerDetail="5" limitTurnSpeed="5.50" xmlns:xsi="http://www.w3.org/2001/XMLSchema-instance" xsi:noNamespaceSchemaLocation="http://sumo.dlr.de/xsd/net_file.xsd">

    <location netOffset="-795346.35,-2534959.14" convBoundary="0.00,0.00,5265.59,4730.91" origBoundary="113.879810,22.896053,113.930352,22.939256" projParameter="+proj=utm +zone=49 +ellps=WGS84 +datum=WGS84 +units=m +no_defs"/>

    <type id="highway.motorway_link" priority="9" numLanes="1" speed="22.22" allow="private emergency authority army vip passenger hov taxi bus coach delivery truck trailer motorcycle evehicle custom1 custom2" oneway="1"/>
    <type id="highway.primary" priority="12" numLanes="2" speed="27.78" disallow="tram rail_urban rail rail_electric rail_fast ship" oneway="0"/>
    <type id="highway.primary_link" priority="7" numLanes="1" speed="22.22" disallow="tram rail_urban rail rail_electric rail_fast ship" oneway="0"/>
    <type id="highway.residential" priority="3" numLanes="1" speed="13.89" disallow="tram rail_urban rail rail_electric rail_fast ship" oneway="0"/>
    <type id="highway.secondary" priority="11" numLanes="1" speed="27.78" disallow="tram rail_urban rail rail_electric rail_fast ship" oneway="0"/>
    <type id="highway.service" priority="1" numLanes="1" speed="5.56" allow="pedestrian delivery bicycle" oneway="0"/>
    <type id="highway.tertiary" priority="10" numLanes="1" speed="22.22" disallow="tram rail_urban rail rail_electric rail_fast ship" oneway="0"/>
    <type id="highway.unclassified" priority="4" numLanes="1" speed="13.89" disallow="tram rail_urban rail rail_electric rail_fast ship" oneway="0"/>

    <edge id=":11123352431_0" function="internal">
        <lane id=":11123352431_0_0" index="0" disallow="tram rail_urban rail rail_electric rail_fast ship" speed="5.57" length="9.38" shape="2980.20,2055.28 2977.71,2053.83 2975.90,2053.81 2974.78,2055.23 2974.35,2058.08"/>
    </edge>
    <edge id=":11123352431_1" function="internal">
        <lane id=":11123352431_1_0" index="0" disallow="tram rail_urban rail rail_electric rail_fast ship" speed="13.89" length="15.96" shape="2980.20,2055.28 2977.04,2052.98 2973.59,2050.77 2970.00,2048.86 2966.37,2047.46"/>
    </edge>
    <edge id=":11123352431_2" function="internal">
        <lane id=":11123352431_2_0" index="0" disallow="tram rail_urban rail rail_electric rail_fast ship" speed="6.04" length="12.74" shape="2980.20,2055.28 2976.23,2054.10 2974.46,2052.24 2974.88,2049.71 2977.07,2047.03"/>
    </edge>
    <edge id=":11123352431_9" function="internal">
        <lane id=":11123352431_9_0" index="0" disallow="tram rail_urban rail rail_electric rail_fast ship" speed="6.04" length="0.67" shape="2977.07,2047.03 2977.50,2046.50"/>
    </edge>
    <edge id=":11123352431_3" function="internal">
        <lane id=":11123352431_3_0" index="0" disallow="tram rail_urban rail rail_electric rail_fast ship" speed="13.89" length="10.46" shape="2967.29,2044.39 2970.20,2045.27 2972.32,2045.85 2974.47,2046.22 2977.50,2046.50"/>
    </edge>
    <edge id=":11123352431_4" function="internal">
        <lane id=":11123352431_4_0" index="0" disallow="tram rail_urban rail rail_electric rail_fast ship" speed="9.59" length="4.02" shape="2967.29,2044.39 2970.49,2046.07 2970.74,2046.39"/>
    </edge>
    <edge id=":11123352431_5" function="internal">
        <lane id=":11123352431_5_0" index="0" disallow="tram rail_urban rail rail_electric rail_fast ship" speed="3.65" length="1.44" shape="2967.29,2044.39 2968.21,2045.50"/>
    </edge>
    <edge id=":11123352431_10" function="internal">
        <lane id=":11123352431_10_0" index="0" disallow="tram rail_urban rail rail_electric rail_fast ship" speed="9.59" length="12.59" shape="2970.74,2046.39 2972.73,2048.91 2974.02,2052.91 2974.35,2058.08"/>
    </edge>
    <edge id=":11123352431_11" function="internal">
        <lane id=":11123352431_11_0" index="0" disallow="tram rail_urban rail rail_electric rail_fast ship" speed="3.65" length="3.23" shape="2968.21,2045.50 2968.37,2046.38 2967.75,2047.04 2966.37,2047.46"/>
    </edge>
    <edge id=":11123352431_6" function="internal">
        <lane id=":11123352431_6_0" index="0" disallow="tram rail_urban rail rail_electric rail_fast ship" speed="8.36" length="12.42" shape="2971.15,2058.00 2970.94,2053.95 2970.07,2050.84 2968.55,2048.68 2966.37,2047.46"/>
    </edge>
    <edge id=":11123352431_7" function="internal">
        <lane id=":11123352431_7_0" index="0" disallow="tram rail_urban rail rail_electric rail_fast ship" speed="7.99" length="14.65" shape="2971.15,2058.00 2971.66,2052.80 2972.89,2049.16 2974.84,2047.06 2977.50,2046.50"/>
    </edge>
    <edge id=":11123352431_8" function="internal">
        <lane id=":11123352431_8_0" index="0" disallow="tram rail_urban rail rail_electric rail_fast ship" speed="3.65" length="4.67" shape="2971.15,2058.00 2971.98,2056.82 2972.79,2056.44 2973.58,2056.86 2974.35,2058.08"/>
    </edge>
    <edge id=":11123352438_0" function="internal">
        <lane id=":11123352438_0_0" index="0" disallow="tram rail_urban rail rail_electric rail_fast ship" speed="3.65" length="4.67" shape="2867.89,2460.01 2866.76,2460.91 2865.88,2461.06 2865.24,2460.43 2864.83,2459.05"/>
    </edge>
    <edge id=":11910396315_0" function="internal">
        <lane id=":11910396315_0_0" index="0" disallow="tram rail_urban rail rail_electric rail_fast ship" speed="3.65" length="4.67" shape="2201.98,3317.38 2200.64,3317.92 2199.75,3317.81 2199.32,3317.03 2199.32,3315.58"/>
    </edge>
    <edge id=":11910396325_0" function="internal">
        <lane id=":11910396325_0_0" index="0" allow="pedestrian delivery bicycle" speed="5.32" length="5.17" shape="2986.43,1845.70 2985.12,1845.51 2984.00,1845.80 2983.06,1846.57 2982.30,1847.83"/>
    </edge>
    <edge id=":11910396325_1" function="internal">
        <lane id=":11910396325_1_0" index="0" disallow="tram rail_urban rail rail_electric rail_fast ship" speed="13.89" length="9.23" shape="2986.43,1845.70 2983.82,1844.88 2982.05,1844.25 2980.31,1843.54 2977.81,1842.43"/>
    </edge>
    <edge id=":11910396325_2" function="internal">
        <lane id=":11910396325_2_0" index="0" disallow="tram rail_urban rail rail_electric rail_fast ship" speed="13.89" length="8.86" shape="2979.11,1839.50 2981.51,1840.57 2983.18,1841.26 2984.88,1841.85 2987.38,1842.65"/>
    </edge>
    <edge id=":11910396325_3" function="internal">
        <lane id=":11910396325_3_0" index="0" allow="pedestrian delivery bicycle" speed="6.86" length="3.24" shape="2979.11,1839.50 2981.47,1840.99 2981.73,1841.36"/>
    </edge>
    <edge id=":11910396325_7" function="internal">
        <lane id=":11910396325_7_0" index="0" allow="pedestrian delivery bicycle" speed="6.86" length="6.93" shape="2981.73,1841.36 2982.79,1842.87 2983.06,1845.15 2982.30,1847.83"/>
    </edge>
    <edge id=":11910396325_4" function="internal">
        <lane id=":11910396325_4_0" index="0" allow="pedestrian delivery bicycle" speed="5.04" length="5.00" shape="2979.37,1846.52 2979.75,1845.20 2979.62,1844.08 2978.97,1843.16 2977.81,1842.43"/>
    </edge>
    <edge id=":11910396325_5" function="internal">
        <lane id=":11910396325_5_0" index="0" allow="pedestrian delivery bicycle" speed="7.08" length="9.90" shape="2979.37,1846.52 2980.82,1844.18 2982.63,1842.76 2984.82,1842.25 2987.38,1842.65"/>
    </edge>
    <edge id=":11910396325_6" function="internal">
        <lane id=":11910396325_6_0" index="0" allow="pedestrian delivery bicycle" speed="3.65" length="4.67" shape="2979.37,1846.52 2980.60,1845.76 2981.49,1845.72 2982.06,1846.41 2982.30,1847.83"/>
    </edge>
    <edge id=":11910396331_0" function="internal">
        <lane id=":11910396331_0_0" index="0" disallow="tram rail_urban rail rail_electric rail_fast ship" speed="3.65" length="4.67" shape="3101.66,1850.27 3102.96,1850.88 3103.48,1851.61 3103.21,1852.46 3102.14,1853.43"/>
    </edge>
    <edge id=":11910396338_0" function="internal">
        <lane id=":11910396338_0_0" index="0" disallow="tram rail_urban rail rail_electric rail_fast ship" speed="22.23" length="12.44" shape="3186.55,2104.95 3186.16,2101.30 3186.26,2098.76 3186.37,2096.22 3185.98,2092.56"/>
        <lane id=":11910396338_0_1" index="1" disallow="tram rail_urban rail rail_electric rail_fast ship" speed="22.23" length="12.44" shape="3189.70,2104.40 3189.31,2100.74 3189.42,2098.20 3189.52,2095.66 3189.13,2092.01"/>
        <lane id=":11910396338_0_2" index="2" disallow="tram rail_urban rail rail_electric rail_fast ship" speed="22.23" length="12.44" shape="3192.85,2103.84 3192.46,2100.18 3192.57,2097.64 3192.67,2095.10 3192.28,2091.45"/>
    </edge>
    <edge id=":11910396338_3" function="internal">
        <lane id=":11910396338_3_0" index="0" disallow="tram rail_urban rail rail_electric rail_fast ship" speed="5.76" length="9.17" shape="3177.67,2097.83 3180.35,2098.18 3182.11,2097.51 3182.93,2095.83 3182.83,2093.12"/>
        <lane id=":11910396338_3_1" index="1" disallow="tram rail_urban rail rail_electric rail_fast ship" speed="6.67" length="12.77" shape="3177.67,2097.83 3181.83,2098.50 3184.60,2097.84 3185.99,2095.86 3185.98,2092.56"/>
        <lane id=":11910396338_3_2" index="2" disallow="tram rail_urban rail rail_electric rail_fast ship" speed="7.49" length="16.45" shape="3177.67,2097.83 3183.31,2098.81 3187.10,2098.17 3189.04,2095.90 3189.13,2092.01"/>
    </edge>
    <edge id=":1880561971_0" function="internal">
        <lane id=":1880561971_0_0" index="0" disallow="tram rail_urban rail rail_electric rail_fast ship" speed="10.85" length="2.08" shape="5255.92,861.26 5256.92,861.07 5257.62,861.00 5258.33,861.08 5259.33,861.29"/>
        <lane id=":1880561971_0_1" index="1" disallow="tram rail_urban rail rail_electric rail_fast ship" speed="8.51" length="2.08" shape="5256.58,864.40 5257.18,864.28 5257.60,864.24 5258.02,864.28 5258.62,864.41"/>
        <lane id=":1880561971_0_2" index="2" disallow="tram rail_urban rail rail_electric rail_fast ship" speed="27.78" length="2.08" shape="5257.23,867.53 5257.44,867.49 5257.58,867.48 5257.72,867.49 5257.92,867.53"/>
    </edge>
    <edge id=":2522072709_0" function="internal">
        <lane id=":2522072709_0_0" index="0" disallow="tram rail_urban rail rail_electric rail_fast ship" speed="16.67" length="0.59" shape="3103.75,1541.38 3103.37,1541.42"/>
        <lane id=":2522072709_0_1" index="1" disallow="tram rail_urban rail rail_electric rail_fast ship" speed="16.67" length="0.59" shape="3103.50,1538.19 3102.98,1538.24"/>
        <lane id=":2522072709_0_2" index="2" disallow="tram rail_urban rail rail_electric rail_fast ship" speed="16.67" length="0.59" shape="3103.25,1535.00 3102.59,1535.07"/>
        <lane id=":2522072709_0_3" index="3" disallow="tram rail_urban rail rail_electric rail_fast ship" speed="16.67" length="0.59" shape="3102.99,1531.81 3102.21,1531.89"/>
    </edge>
    <edge id=":3151680777_0" function="internal">
        <lane id=":3151680777_0_0" index="0" allow="private emergency authority army vip passenger hov taxi bus coach delivery truck trailer motorcycle evehicle custom1 custom2" speed="22.22" length="11.83" shape="3524.53,1134.10 3525.53,1131.02 3525.98,1128.41 3526.22,1125.74 3526.58,1122.50"/>
    </edge>
    <edge id=":3151680777_1" function="internal">
        <lane id=":3151680777_1_0" index="0" allow="private emergency authority army vip passenger hov taxi bus coach delivery truck trailer motorcycle evehicle custom1 custom2" speed="22.22" length="11.72" shape="3524.53,1134.10 3525.90,1131.17 3527.25,1128.91 3528.57,1126.64 3529.83,1123.67"/>
    </edge>
    <edge id=":3151680790_0" function="internal">
        <lane id=":3151680790_0_0" index="0" allow="private emergency authority army vip passenger hov taxi bus coach delivery truck trailer motorcycle evehicle custom1 custom2" speed="22.22" length="0.48" shape="3496.22,1200.85 3496.23,1200.71 3496.24,1200.61 3496.27,1200.52 3496.31,1200.38"/>
    </edge>
    <edge id=":3151680791_0" function="internal">
        <lane id=":3151680791_0_0" index="0" allow="private emergency authority army vip passenger hov taxi bus coach delivery truck trailer motorcycle evehicle custom1 custom2" speed="22.22" length="10.63" shape="3544.62,1137.80 3542.70,1140.21 3541.26,1141.95 3539.96,1143.77 3538.49,1146.46"/>
    </edge>
    <edge id=":3151680791_1" function="internal">
        <lane id=":3151680791_1_0" index="0" allow="private emergency authority army vip passenger hov taxi bus coach delivery truck trailer motorcycle evehicle custom1 custom2" speed="22.22" length="10.64" shape="3541.20,1136.22 3540.63,1139.25 3540.27,1141.49 3539.70,1143.65 3538.49,1146.46"/>
    </edge>
    <edge id=":3151680794_0" function="internal">
        <lane id=":3151680794_0_0" index="0" allow="private emergency authority army vip passenger hov taxi bus coach delivery truck trailer motorcycle evehicle custom1 custom2" speed="22.22" length="0.21" shape="3542.98,1346.49 3542.93,1346.45 3542.90,1346.42 3542.87,1346.39 3542.83,1346.34"/>
    </edge>
    <edge id=":3151680795_0" function="internal">
        <lane id=":3151680795_0_0" index="0" allow="private emergency authority army vip passenger hov taxi bus coach delivery truck trailer motorcycle evehicle custom1 custom2" speed="22.22" length="0.29" shape="3556.59,1326.65 3556.81,1326.85"/>
    </edge>
    <edge id=":3780915663_0" function="internal">
        <lane id=":3780915663_0_0" index="0" disallow="tram rail_urban rail rail_electric rail_fast ship" speed="3.65" length="4.67" shape="1.46,4731.57 0.23,4732.33 -0.66,4732.37 -1.22,4731.67 -1.46,4730.25"/>
    </edge>
    <edge id=":3781518488_0" function="internal">
        <lane id=":3781518488_0_0" index="0" disallow="tram rail_urban rail rail_electric rail_fast ship" speed="13.89" length="8.00" shape="2409.05,2011.06 2404.31,2017.51"/>
    </edge>
    <edge id=":3781518488_1" function="internal">
        <lane id=":3781518488_1_0" index="0" disallow="tram rail_urban rail rail_electric rail_fast ship" speed="3.65" length="1.44" shape="2409.05,2011.06 2407.69,2011.56"/>
    </edge>
    <edge id=":3781518488_5" function="internal">
        <lane id=":3781518488_5_0" index="0" disallow="tram rail_urban rail rail_electric rail_fast ship" speed="3.65" length="3.23" shape="2407.69,2011.56 2406.81,2011.41 2406.40,2010.61 2406.47,2009.17"/>
    </edge>
    <edge id=":3781518488_2" function="internal">
        <lane id=":3781518488_2_0" index="0" disallow="tram rail_urban rail rail_electric rail_fast ship" speed="13.89" length="8.40" shape="2401.73,2015.62 2402.79,2013.34 2402.81,2011.45 2402.83,2009.56 2403.89,2007.28"/>
        <lane id=":3781518488_2_1" index="1" disallow="tram rail_urban rail rail_electric rail_fast ship" speed="13.89" length="8.40" shape="2401.73,2015.62 2406.47,2009.17"/>
    </edge>
    <edge id=":3781518488_4" function="internal">
        <lane id=":3781518488_4_0" index="0" disallow="tram rail_urban rail rail_electric rail_fast ship" speed="3.65" length="1.44" shape="2401.73,2015.62 2403.09,2015.12"/>
    </edge>
    <edge id=":3781518488_6" function="internal">
        <lane id=":3781518488_6_0" index="0" disallow="tram rail_urban rail rail_electric rail_fast ship" speed="3.65" length="3.23" shape="2403.09,2015.12 2403.97,2015.27 2404.38,2016.07 2404.31,2017.51"/>
    </edge>
    <edge id=":3781518507_0" function="internal">
        <lane id=":3781518507_0_0" index="0" disallow="tram rail_urban rail rail_electric rail_fast ship" speed="3.65" length="4.67" shape="3535.23,2203.86 3534.33,2204.99 3533.50,2205.31 3532.74,2204.84 3532.05,2203.58"/>
    </edge>
    <edge id=":3781518509_0" function="internal">
        <lane id=":3781518509_0_0" index="0" disallow="tram rail_urban rail rail_electric rail_fast ship" speed="3.65" length="4.67" shape="2974.48,1817.08 2973.65,1818.26 2972.84,1818.64 2972.05,1818.22 2971.28,1817.00"/>
    </edge>
    <edge id=":3957481137_0" function="internal">
        <lane id=":3957481137_0_0" index="0" allow="private emergency authority army vip passenger hov taxi bus coach delivery truck trailer motorcycle evehicle custom1 custom2" speed="6.34" length="9.04" shape="3683.10,1439.70 3685.22,1441.02 3687.22,1441.30 3689.08,1440.53 3690.81,1438.72"/>
    </edge>
    <edge id=":3957481137_1" function="internal">
        <lane id=":3957481137_1_0" index="0" disallow="tram rail_urban rail rail_electric rail_fast ship" speed="27.78" length="11.26" shape="3684.24,1447.82 3690.81,1438.72"/>
        <lane id=":3957481137_1_1" index="1" disallow="tram rail_urban rail rail_electric rail_fast ship" speed="27.78" length="11.26" shape="3686.83,1449.71 3693.42,1440.58"/>
        <lane id=":3957481137_1_2" index="2" disallow="tram rail_urban rail rail_electric rail_fast ship" speed="27.78" length="11.26" shape="3689.41,1451.60 3696.02,1442.45"/>
    </edge>
    <edge id=":3957481141_0" function="internal">
        <lane id=":3957481141_0_0" index="0" allow="private emergency authority army vip passenger hov taxi bus coach delivery truck trailer motorcycle evehicle custom1 custom2" speed="6.56" length="9.01" shape="3672.50,1463.45 3673.74,1461.37 3674.01,1459.36 3673.32,1457.42 3671.66,1455.55"/>
    </edge>
    <edge id=":3957481141_1" function="internal">
        <lane id=":3957481141_1_0" index="0" disallow="tram rail_urban rail rail_electric rail_fast ship" speed="27.78" length="11.24" shape="3672.50,1463.45 3679.25,1454.67"/>
        <lane id=":3957481141_1_1" index="1" disallow="tram rail_urban rail rail_electric rail_fast ship" speed="27.78" length="11.24" shape="3674.98,1465.47 3681.83,1456.56"/>
        <lane id=":3957481141_1_2" index="2" disallow="tram rail_urban rail rail_electric rail_fast ship" speed="27.78" length="11.24" shape="3677.47,1467.49 3684.42,1458.44"/>
    </edge>
    <edge id=":3957481159_0" function="internal">
        <lane id=":3957481159_0_0" index="0" disallow="tram rail_urban rail rail_electric rail_fast ship" speed="9.75" length="4.91" shape="3083.01,1548.56 3081.70,1547.93 3080.75,1547.54 3079.76,1547.41 3078.33,1547.51"/>
    </edge>
    <edge id=":3957481159_1" function="internal">
        <lane id=":3957481159_1_0" index="0" disallow="tram rail_urban rail rail_electric rail_fast ship" speed="16.67" length="5.09" shape="3083.20,1544.49 3081.65,1544.59 3080.58,1544.45 3079.51,1544.28 3077.95,1544.33"/>
        <lane id=":3957481159_1_1" index="1" disallow="tram rail_urban rail rail_electric rail_fast ship" speed="16.67" length="5.09" shape="3082.69,1541.33 3081.18,1541.43 3080.14,1541.28 3079.09,1541.11 3077.57,1541.15"/>
        <lane id=":3957481159_1_2" index="2" disallow="tram rail_urban rail rail_electric rail_fast ship" speed="16.67" length="5.09" shape="3082.19,1538.17 3080.71,1538.26 3079.69,1538.11 3078.67,1537.93 3077.19,1537.97"/>
        <lane id=":3957481159_1_3" index="3" disallow="tram rail_urban rail rail_electric rail_fast ship" speed="16.67" length="5.09" shape="3081.68,1535.01 3080.24,1535.10 3079.25,1534.94 3078.25,1534.76 3076.81,1534.80"/>
    </edge>
    <edge id=":3957481162_0" function="internal">
        <lane id=":3957481162_0_0" index="0" disallow="tram rail_urban rail rail_electric rail_fast ship" speed="6.88" length="9.02" shape="2985.67,1558.73 2983.33,1559.37 2981.65,1560.60 2980.61,1562.41 2980.23,1564.80"/>
    </edge>
    <edge id=":3957481162_1" function="internal">
        <lane id=":3957481162_1_0" index="0" disallow="tram rail_urban rail rail_electric rail_fast ship" speed="16.67" length="14.02" shape="2985.25,1555.55 2981.11,1556.34 2978.34,1557.22 2975.56,1558.04 2971.41,1558.67"/>
        <lane id=":3957481162_1_1" index="1" disallow="tram rail_urban rail rail_electric rail_fast ship" speed="16.67" length="14.02" shape="2984.83,1552.38 2980.73,1553.17 2977.99,1554.04 2975.23,1554.86 2971.12,1555.48"/>
        <lane id=":3957481162_1_2" index="2" disallow="tram rail_urban rail rail_electric rail_fast ship" speed="16.67" length="14.02" shape="2984.41,1549.21 2980.35,1549.99 2977.63,1550.86 2974.91,1551.68 2970.83,1552.29"/>
        <lane id=":3957481162_1_3" index="3" disallow="tram rail_urban rail rail_electric rail_fast ship" speed="16.67" length="14.02" shape="2983.99,1546.04 2979.97,1546.81 2977.28,1547.68 2974.58,1548.49 2970.54,1549.11"/>
    </edge>
    <edge id=":3957481162_5" function="internal">
        <lane id=":3957481162_5_0" index="0" disallow="tram rail_urban rail rail_electric rail_fast ship" speed="6.47" length="9.67" shape="2977.03,1564.73 2976.73,1561.88 2975.70,1559.92 2973.92,1558.85 2971.41,1558.67"/>
    </edge>
    <edge id=":4494568536_0" function="internal">
        <lane id=":4494568536_0_0" index="0" disallow="tram rail_urban rail rail_electric rail_fast ship" speed="16.67" length="1.33" shape="2704.47,1609.86 2704.26,1610.19 2704.11,1610.41 2703.94,1610.62 2703.68,1610.91"/>
    </edge>
    <edge id=":4494568536_1" function="internal">
        <lane id=":4494568536_1_0" index="0" disallow="tram rail_urban rail rail_electric rail_fast ship" speed="16.67" length="0.53" shape="2698.89,1606.68 2698.94,1606.62 2698.97,1606.58 2699.00,1606.54 2699.04,1606.47"/>
        <lane id=":4494568536_1_1" index="1" disallow="tram rail_urban rail rail_electric rail_fast ship" speed="16.67" length="0.53" shape="2701.28,1608.80 2701.44,1608.62 2701.54,1608.50 2701.63,1608.36 2701.76,1608.16"/>
    </edge>
    <edge id=":4843503923_0" function="internal">
        <lane id=":4843503923_0_0" index="0" disallow="tram rail_urban rail rail_electric rail_fast ship" speed="16.67" length="3.71" shape="3121.38,1489.22 3121.32,1488.00 3121.31,1487.17 3121.34,1486.34 3121.42,1485.12"/>
        <lane id=":4843503923_0_1" index="1" disallow="tram rail_urban rail rail_electric rail_fast ship" speed="16.67" length="3.71" shape="3124.58,1489.05 3124.52,1487.95 3124.51,1487.20 3124.54,1486.44 3124.61,1485.35"/>
        <lane id=":4843503923_0_2" index="2" disallow="tram rail_urban rail rail_electric rail_fast ship" speed="16.67" length="3.71" shape="3127.77,1488.88 3127.72,1487.90 3127.71,1487.22 3127.74,1486.55 3127.81,1485.57"/>
    </edge>
    <edge id=":4843503923_3" function="internal">
        <lane id=":4843503923_3_0" index="0" disallow="tram rail_urban rail rail_electric rail_fast ship" speed="14.31" length="3.56" shape="3117.36,1488.31 3117.79,1487.35 3118.02,1486.66 3118.14,1485.95 3118.23,1484.90"/>
    </edge>
    <edge id=":4843503924_0" function="internal">
        <lane id=":4843503924_0_0" index="0" disallow="tram rail_urban rail rail_electric rail_fast ship" speed="7.33" length="7.68" shape="3189.45,2121.29 3188.87,2119.70 3187.77,2118.37 3186.13,2117.30 3183.97,2116.50"/>
    </edge>
    <edge id=":4843503924_1" function="internal">
        <lane id=":4843503924_1_0" index="0" disallow="tram rail_urban rail rail_electric rail_fast ship" speed="27.78" length="8.52" shape="3189.45,2121.29 3187.95,2112.89"/>
        <lane id=":4843503924_1_1" index="1" disallow="tram rail_urban rail rail_electric rail_fast ship" speed="27.78" length="8.52" shape="3192.60,2120.72 3191.10,2112.33"/>
        <lane id=":4843503924_1_2" index="2" disallow="tram rail_urban rail rail_electric rail_fast ship" speed="27.78" length="8.52" shape="3195.75,2120.14 3194.26,2111.77"/>
    </edge>
    <edge id=":4843504005_0" function="internal">
        <lane id=":4843504005_0_0" index="0" disallow="tram rail_urban rail rail_electric rail_fast ship" speed="16.67" length="7.65" shape="3118.84,1588.16 3118.57,1586.00 3117.84,1584.64 3116.84,1583.32 3115.80,1581.30"/>
    </edge>
    <edge id=":4843504005_1" function="internal">
        <lane id=":4843504005_1_0" index="0" disallow="tram rail_urban rail rail_electric rail_fast ship" speed="16.67" length="7.47" shape="3122.04,1588.34 3121.81,1586.22 3121.27,1584.81 3120.74,1583.39 3120.52,1581.27"/>
        <lane id=":4843504005_1_1" index="1" disallow="tram rail_urban rail rail_electric rail_fast ship" speed="16.67" length="7.47" shape="3125.23,1588.52 3125.01,1586.37 3124.47,1584.93 3123.93,1583.49 3123.72,1581.33"/>
        <lane id=":4843504005_1_2" index="2" disallow="tram rail_urban rail rail_electric rail_fast ship" speed="16.67" length="7.47" shape="3128.43,1588.70 3128.21,1586.51 3127.67,1585.05 3127.13,1583.58 3126.92,1581.39"/>
        <lane id=":4843504005_1_3" index="3" disallow="tram rail_urban rail rail_electric rail_fast ship" speed="16.67" length="7.47" shape="3131.63,1588.88 3131.40,1586.66 3130.87,1585.17 3130.33,1583.68 3130.12,1581.45"/>
    </edge>
    <edge id=":6693773741_0" function="internal">
        <lane id=":6693773741_0_0" index="0" disallow="tram rail_urban rail rail_electric rail_fast ship" speed="15.28" length="0.35" shape="2467.45,1931.50 2467.25,1931.78"/>
    </edge>
    <edge id=":6693773741_1" function="internal">
        <lane id=":6693773741_1_0" index="0" disallow="tram rail_urban rail rail_electric rail_fast ship" speed="3.65" length="2.34" shape="2467.45,1931.50 2466.11,1932.03 2465.22,1931.90"/>
    </edge>
    <edge id=":6693773741_5" function="internal">
        <lane id=":6693773741_5_0" index="0" disallow="tram rail_urban rail rail_electric rail_fast ship" speed="3.65" length="2.34" shape="2465.22,1931.90 2464.80,1931.11 2464.83,1929.67"/>
    </edge>
    <edge id=":6693773741_2" function="internal">
        <lane id=":6693773741_2_0" index="0" disallow="tram rail_urban rail rail_electric rail_fast ship" speed="15.28" length="0.23" shape="2462.09,1927.99 2462.20,1927.84"/>
        <lane id=":6693773741_2_1" index="1" disallow="tram rail_urban rail rail_electric rail_fast ship" speed="15.28" length="0.23" shape="2464.67,1929.89 2464.83,1929.67"/>
    </edge>
    <edge id=":6693773741_4" function="internal">
        <lane id=":6693773741_4_0" index="0" disallow="tram rail_urban rail rail_electric rail_fast ship" speed="3.65" length="2.34" shape="2464.67,1929.89 2466.02,1929.39 2466.91,1929.54"/>
    </edge>
    <edge id=":6693773741_6" function="internal">
        <lane id=":6693773741_6_0" index="0" disallow="tram rail_urban rail rail_electric rail_fast ship" speed="3.65" length="2.34" shape="2466.91,1929.54 2467.31,1930.34 2467.25,1931.78"/>
    </edge>
    <edge id=":7298400388_0" function="internal">
        <lane id=":7298400388_0_0" index="0" disallow="tram rail_urban rail rail_electric rail_fast ship" speed="6.24" length="9.05" shape="2682.69,1846.09 2680.70,1844.53 2678.76,1844.07 2676.87,1844.71 2675.02,1846.44"/>
    </edge>
    <edge id=":7298400388_1" function="internal">
        <lane id=":7298400388_1_0" index="0" disallow="tram rail_urban rail rail_electric rail_fast ship" speed="3.65" length="4.67" shape="2682.69,1846.09 2682.44,1844.67 2682.74,1843.83 2683.59,1843.57 2685.00,1843.88"/>
    </edge>
    <edge id=":7298400388_2" function="internal">
        <lane id=":7298400388_2_0" index="0" disallow="tram rail_urban rail rail_electric rail_fast ship" speed="7.04" length="9.72" shape="2684.10,1835.17 2682.88,1837.29 2682.62,1839.44 2683.33,1841.64 2685.00,1843.88"/>
    </edge>
    <edge id=":7298400388_3" function="internal">
        <lane id=":7298400388_3_0" index="0" disallow="tram rail_urban rail rail_electric rail_fast ship" speed="27.78" length="14.49" shape="2684.10,1835.17 2675.02,1846.44"/>
        <lane id=":7298400388_3_1" index="1" disallow="tram rail_urban rail rail_electric rail_fast ship" speed="27.78" length="14.49" shape="2681.62,1833.15 2672.52,1844.44"/>
    </edge>
    <edge id=":7298400390_0" function="internal">
        <lane id=":7298400390_0_0" index="0" disallow="tram rail_urban rail rail_electric rail_fast ship" speed="13.89" length="9.03" shape="2874.08,1989.74 2866.91,1984.25"/>
    </edge>
    <edge id=":7298400390_1" function="internal">
        <lane id=":7298400390_1_0" index="0" allow="pedestrian delivery bicycle" speed="6.87" length="3.04" shape="2874.08,1989.74 2872.22,1987.69 2872.13,1987.43"/>
    </edge>
    <edge id=":7298400390_7" function="internal">
        <lane id=":7298400390_7_0" index="0" allow="pedestrian delivery bicycle" speed="6.87" length="7.06" shape="2872.13,1987.43 2871.45,1985.54 2871.78,1983.27 2873.20,1980.90"/>
    </edge>
    <edge id=":7298400390_2" function="internal">
        <lane id=":7298400390_2_0" index="0" allow="pedestrian delivery bicycle" speed="5.05" length="4.99" shape="2875.68,1982.91 2874.99,1984.08 2874.83,1985.20 2875.20,1986.26 2876.12,1987.27"/>
    </edge>
    <edge id=":7298400390_3" function="internal">
        <lane id=":7298400390_3_0" index="0" allow="pedestrian delivery bicycle" speed="6.97" length="9.98" shape="2875.68,1982.91 2873.68,1984.79 2871.56,1985.64 2869.30,1985.46 2866.91,1984.25"/>
    </edge>
    <edge id=":7298400390_4" function="internal">