<?xml version="1.0" encoding="UTF-8"?>

<!-- generated on 2024-08-01 11:17:52 by Eclipse SUMO netedit Version 1.18.0
-->

<additional xmlns:xsi="http://www.w3.org/2001/XMLSchema-instance" xsi:noNamespaceSchemaLocation="http://sumo.dlr.de/xsd/additional_file.xsd">
    <!-- Detectors -->
    <laneAreaDetector id="1_E_SL_0" lanes="131279242#4_3 131279242#4.80_4 131279242#5_3" pos="0.00" endPos="20.84" freq="160.00" file="e2_out.xml"/>
    <laneAreaDetector id="1_E_SL_1" lanes="131279242#4_2 131279242#4.80_3 131279242#5_2" pos="0.00" endPos="20.71" freq="160.00" file="e2_out.xml"/>
    <laneAreaDetector id="1_E_SL_2" lanes="131279242#4_1 131279242#4.80_2 131279242#5_1" pos="0.00" endPos="21.04" freq="160.00" file="e2_out.xml"/>
    <laneAreaDetector id="1_E_SL_3" lanes="131279242#4_0 131279242#4.80_1 131279242#5_0" pos="0.00" endPos="20.90" freq="160.00" file="e2_out.xml"/>
    <laneAreaDetector id="1_N_SL_0" lanes="128009952#0_4 128009952#0.1503_4 128009952#0.1549_3" pos="1445.45" endPos="18.03" freq="160.00" file="e2_out.xml"/>
    <laneAreaDetector id="1_N_SL_1" lanes="128009952#0_3 128009952#0.1503_3 128009952#0.1549_2" pos="1448.10" endPos="17.57" freq="160.00" file="e2_out.xml"/>
    <laneAreaDetector id="1_N_SL_2" lanes="128009952#0_2 128009952#0.1503_2 128009952#0.1549_1" pos="1450.25" endPos="16.65" freq="160.00" file="e2_out.xml"/>
    <laneAreaDetector id="1_N_SL_3" lanes="128009952#0_1 128009952#0.1503_1 128009952#0.1549_0" pos="1452.80" endPos="17.01" freq="160.00" file="e2_out.xml"/>
    <laneAreaDetector id="1_S_SL_0" lanes="492311562#2.494_4 492311562#3_3" pos="0.64" endPos="32.00" freq="160.00" file="e2_out.xml"/>
    <laneAreaDetector id="1_S_SL_1" lanes="492311562#2.494_3 492311562#3_2" pos="1.04" endPos="32.00" freq="160.00" file="e2_out.xml"/>
    <laneAreaDetector id="1_S_SL_2" lanes="492311562#2.494_2 492311562#3_1" pos="1.31" endPos="32.00" freq="160.00" file="e2_out.xml"/>
    <laneAreaDetector id="1_S_SL_3" lanes="492311562#2.494_1 492311562#3_0" pos="0.92" endPos="32.00" freq="160.00" file="e2_out.xml"/>
    <laneAreaDetector id="1_W_SL_0" lanes="392530462#1.320_3 392530462#1.386_3" pos="0.42" endPos="34.02" freq="160.00" file="e2_out.xml"/>
    <laneAreaDetector id="1_W_SL_1" lanes="392530462#1_3 392530462#1.320_3 392530462#1.386_2" pos="144.24" endPos="32.93" freq="160.00" file="e2_out.xml"/>
    <laneAreaDetector id="1_W_SL_2" lanes="392530462#1_2 392530462#1.320_2 392530462#1.386_1" pos="146.96" endPos="32.26" freq="160.00" file="e2_out.xml"/>
    <laneAreaDetector id="1_W_SL_3" lanes="392530462#1_1 392530462#1.320_1 392530462#1.386_0" pos="150.63" endPos="32.20" freq="160.00" file="e2_out.xml"/>
    <laneAreaDetector id="2_E_SL_0" lanes="131279242#2_0 131279242#2.5_0 131279242#2.55_0 131279242#2.90_0" pos="1.62" endPos="36.97" freq="160.00" file="e2_out.xml"/>
    <laneAreaDetector id="2_E_SL_1" lanes="131279242#2_1 131279242#2.5_1 131279242#2.55_1 131279242#2.90_1" pos="1.34" endPos="37.05" freq="160.00" file="e2_out.xml"/>
    <laneAreaDetector id="2_E_SL_2" lanes="131279242#2.55_1 131279242#2.90_2" pos="28.52" endPos="37.03" freq="160.00" file="e2_out.xml"/>
    <laneAreaDetector id="2_E_SL_3" lanes="131279242#2_2 131279242#2.5_2 131279242#2.55_2 131279242#2.90_3" pos="1.81" endPos="36.71" freq="160.00" file="e2_out.xml"/>
    <laneAreaDetector id="2_S_SL_0" lanes="492311567#0_2 492311567#0.3049_2" pos="2941.83" endPos="45.00" freq="160.00" file="e2_out.xml"/>
    <laneAreaDetector id="2_S_SL_1" lanes="492311567#0_1 492311567#0.3049_1" pos="2943.70" endPos="45.00" freq="160.00" file="e2_out.xml"/>
    <laneAreaDetector id="2_S_SL_2" lanes="492311567#0_0 492311567#0.3049_0" pos="2944.37" endPos="45.00" freq="160.00" file="e2_out.xml"/>
    <laneAreaDetector id="2_W_SL_0" lanes="392530462#3_3 911706840#0_3 911706840#1_4 911706840#2_3" pos="0.24" endPos="60.46" freq="160.00" file="e2_out.xml"/>
    <laneAreaDetector id="2_W_SL_1" lanes="392530462#3_2 911706840#0_2 911706840#1_3 911706840#2_2" pos="0.48" endPos="60.44" freq="160.00" file="e2_out.xml"/>
    <laneAreaDetector id="2_W_SL_2" lanes="392530462#3_1 911706840#0_1 911706840#1_2 911706840#2_1" pos="0.50" endPos="60.41" freq="160.00" file="e2_out.xml"/>
    <laneAreaDetector id="2_W_SL_3" lanes="392530462#3_0 911706840#0_0 911706840#1_1 911706840#2_0" pos="0.58" endPos="60.37" freq="160.00" file="e2_out.xml"/>
    <laneAreaDetector id="3_E_SL_0" lanes="131279242#0_0 131279242#0.1020_0 131279242#0.1020.71_0" pos="1019.05" endPos="42.11" freq="160.00" file="e2_out.xml"/>
    <laneAreaDetector id="3_E_SL_1" lanes="131279242#0_0 131279242#0.1020_1 131279242#0.1020.71_1" pos="897.91" endPos="42.15" freq="160.00" file="e2_out.xml"/>
    <laneAreaDetector id="3_E_SL_2" lanes="131279242#0_1 131279242#0.1020_2 131279242#0.1020.71_2" pos="897.30" endPos="42.27" freq="160.00" file="e2_out.xml"/>
    <laneAreaDetector id="3_E_SL_3" lanes="131279242#0_2 131279242#0.1020_3 131279242#0.1020.71_3" pos="897.34" endPos="43.00" freq="160.00" file="e2_out.xml"/>
    <laneAreaDetector id="3_E_SL_4" lanes="131279242#0_2 131279242#0.1020_4 131279242#0.1020.71_4" pos="1016.84" endPos="43.00" freq="160.00" file="e2_out.xml"/>
    <laneAreaDetector id="3_N_SL_0" lanes="374707236#0_0 374707236#0.1602_0" pos="1500.00" endPos="45.65" freq="160.00" file="e2_out.xml"/>
    <laneAreaDetector id="3_N_SL_1" lanes="374707236#0_1 374707236#0.1602_1" pos="1500.00" endPos="45.68" freq="160.00" file="e2_out.xml"/>
    <laneAreaDetector id="3_N_SL_2" lanes="374707236#0_2 374707236#0.1602_2" pos="1500.00" endPos="44.85" freq="160.00" file="e2_out.xml"/>
    <laneAreaDetector id="3_S_SL_0" lanes="374712321#2_1 374712321#2.367_1 374712321#3_1" pos="292.02" endPos="22.99" freq="160.00" file="e2_out.xml"/>
    <laneAreaDetector id="3_S_SL_1" lanes="374712321#2_0 374712321#2.367_0 374712321#3_0" pos="292.88" endPos="22.37" freq="160.00" file="e2_out.xml"/>
    <laneAreaDetector id="3_W_SL_0" lanes="911706840#5_0 911706840#5.92_0" pos="65.00" endPos="39.00" freq="160.00" file="e2_out.xml"/>
    <laneAreaDetector id="3_W_SL_1" lanes="911706840#5_0 911706840#5.92_1" pos="0.66" endPos="38.71" freq="160.00" file="e2_out.xml"/>
    <laneAreaDetector id="3_W_SL_2" lanes="911706840#5_1 911706840#5.92_2" pos="1.12" endPos="38.42" freq="160.00" file="e2_out.xml"/>
    <laneAreaDetector id="3_W_SL_3" lanes="911706840#5_1 911706840#5.92_3" pos="68.94" endPos="32.09" freq="160.00" file="e2_out.xml"/>
    <laneAreaDetector id="3_W_SL_4" lanes="911706840#5_2 911706840#5.92_4" pos="0.00" endPos="36.54" freq="160.00" file="e2_out.xml"/>
</additional>
