<?xml version="1.0" encoding="UTF-8"?>

<!-- generated on 2024-01-22 20:41:36 by Eclipse SUMO netedit Version 1.12.0
<configuration xmlns:xsi="http://www.w3.org/2001/XMLSchema-instance" xsi:noNamespaceSchemaLocation="http://sumo.dlr.de/xsd/netconvertConfiguration.xsd">

    <input>
        <sumo-net-file value="D:\SEU\TLab\华为三期\Intersection_A\IntersectionA.net.xml"/>
    </input>

    <output>
        <output-file value="D:\SEU\TLab\华为三期\Intersection_A\IntersectionA.net.xml"/>
    </output>

    <processing>
        <geometry.min-radius.fix.railways value="false"/>
        <geometry.max-grade.fix value="false"/>
        <offset.disable-normalization value="true"/>
        <lefthand value="false"/>
    </processing>

    <junctions>
        <no-turnarounds value="true"/>
        <junctions.corner-detail value="5"/>
        <junctions.limit-turn-speed value="5.5"/>
        <rectangular-lane-cut value="true"/>
    </junctions>

    <pedestrian>
        <walkingareas value="false"/>
    </pedestrian>

    <report>
        <aggregate-warnings value="5"/>
    </report>

</configuration>
-->

<net version="1.9" junctionCornerDetail="5" rectangularLaneCut="true" limitTurnSpeed="5.50" xmlns:xsi="http://www.w3.org/2001/XMLSchema-instance" xsi:noNamespaceSchemaLocation="http://sumo.dlr.de/xsd/net_file.xsd">

    <location netOffset="1077.41,1092.27" convBoundary="0.00,0.00,713.49,1287.27" origBoundary="0.000000,0.000000,0.000000,0.000000" projParameter="+proj=tmerc +lat_0=28.602308 +lon_0=-81.20024800000002 +k=1 +x_0=0 +y_0=0 +datum=WGS84 +units=m  +vunits=m +no_defs "/>

    <type id="bidirectional" priority="1" speed="1.39" disallow="pedestrian tram rail_urban rail rail_electric rail_fast ship" width="3.65"/>
    <type id="border" priority="0" speed="1.39" disallow="all" discard="1" width="0.10"/>
    <type id="driving" priority="1" speed="13.89" disallow="pedestrian tram rail_urban rail rail_electric rail_fast ship" width="3.65"/>
    <type id="entry" priority="1" speed="22.22" disallow="pedestrian tram rail_urban rail rail_electric rail_fast ship" width="3.65"/>
    <type id="exit" priority="1" speed="22.22" disallow="pedestrian tram rail_urban rail rail_electric rail_fast ship" width="3.65"/>
    <type id="median" priority="0" speed="1.39" disallow="all" discard="1" width="0.10"/>
    <type id="mwyEntry" priority="1" speed="22.22" allow="private emergency authority army vip passenger hov taxi bus coach delivery truck trailer motorcycle evehicle custom1 custom2" width="3.65"/>
    <type id="mwyExit" priority="1" speed="22.22" allow="private emergency authority army vip passenger hov taxi bus coach delivery truck trailer motorcycle evehicle custom1 custom2" width="3.65"/>
    <type id="none" priority="0" speed="1.39" disallow="all" discard="1" width="1.00"/>
    <type id="offRamp" priority="1" speed="22.22" allow="private emergency authority army vip passenger hov taxi bus coach delivery truck trailer motorcycle evehicle custom1 custom2" width="3.65"/>
    <type id="onRamp" priority="1" speed="22.22" allow="private emergency authority army vip passenger hov taxi bus coach delivery truck trailer motorcycle evehicle custom1 custom2" width="3.65"/>
    <type id="parking" priority="1" speed="1.39" disallow="pedestrian tram rail_urban rail rail_electric rail_fast ship" width="2.50"/>
    <type id="rail" priority="3" speed="33.33" allow="rail_urban rail rail_electric rail_fast" width="3.65"/>
    <type id="restricted" priority="0" speed="13.89" disallow="all" width="3.65"/>
    <type id="roadWorks" priority="0" speed="1.39" allow="authority" width="3.65"/>
    <type id="shoulder" priority="0" speed="1.39" disallow="all" discard="1" width="1.00"/>
    <type id="special1" priority="1" speed="22.22" allow="custom1" discard="1" width="3.65"/>
    <type id="special2" priority="1" speed="22.22" allow="custom2" discard="1" width="3.65"/>
    <type id="special3" priority="1" speed="22.22" allow="custom1 custom2" discard="1" width="3.65"/>
    <type id="stop" priority="1" speed="13.89" disallow="pedestrian tram rail_urban rail rail_electric rail_fast ship" width="3.65"/>
    <type id="tram" priority="2" speed="13.89" allow="tram" width="3.65"/>

    <edge id=":1026_0" function="internal">
        <lane id=":1026_0_0" index="0" disallow="pedestrian tram rail_urban rail rail_electric rail_fast ship" speed="7.41" length="11.91" width="3.25" shape="253.94,566.08 254.37,569.41 255.69,571.80 257.92,573.24 261.05,573.75"/>
    </edge>
    <edge id=":1026_1" function="internal">
        <lane id=":1026_1_0" index="0" disallow="pedestrian tram rail_urban rail rail_electric rail_fast ship" speed="7.38" length="11.64" width="3.50" shape="243.07,573.12 246.28,572.70 248.57,571.39 249.96,569.17 250.44,566.06"/>
    </edge>
    <edge id=":1026_2" function="internal">
        <lane id=":1026_2_0" index="0" disallow="pedestrian tram rail_urban rail rail_electric rail_fast ship" speed="17.88" length="17.99" width="3.25" shape="243.07,573.12 261.05,573.75"/>
        <lane id=":1026_2_1" index="1" disallow="pedestrian tram rail_urban rail rail_electric rail_fast ship" speed="17.88" length="17.99" width="3.25" shape="243.04,576.79 261.02,577.00"/>
        <lane id=":1026_2_2" index="2" disallow="pedestrian tram rail_urban rail rail_electric rail_fast ship" speed="17.88" length="17.99" width="3.50" shape="243.01,580.16 260.99,580.37"/>
        <lane id=":1026_2_3" index="3" disallow="pedestrian tram rail_urban rail rail_electric rail_fast ship" speed="17.88" length="17.99" width="3.25" shape="242.98,583.54 260.97,583.75"/>
        <lane id=":1026_2_4" index="4" disallow="pedestrian tram rail_urban rail rail_electric rail_fast ship" speed="17.88" length="17.99" width="3.51" shape="242.95,586.97 260.94,587.13"/>
        <lane id=":1026_2_5" index="5" disallow="pedestrian tram rail_urban rail rail_electric rail_fast ship" speed="17.88" length="17.99" width="3.24" shape="242.92,590.38 260.91,590.50"/>
    </edge>
    <edge id=":1037_0" function="internal">
        <lane id=":1037_0_0" index="0" disallow="pedestrian tram rail_urban rail rail_electric rail_fast ship" speed="8.41" length="12.90" width="3.50" shape="603.99,1112.23 603.11,1109.87 601.12,1108.04 598.00,1106.73 593.77,1105.94"/>
    </edge>
    <edge id=":1037_1" function="internal">
        <lane id=":1037_1_0" index="0" disallow="pedestrian tram rail_urban rail rail_electric rail_fast ship" speed="17.88" length="17.28" width="3.50" shape="603.99,1112.23 602.18,1095.04"/>
    </edge>
    <edge id=":1037_2" function="internal">
        <lane id=":1037_2_0" index="0" disallow="pedestrian tram rail_urban rail rail_electric rail_fast ship" speed="17.88" length="17.00" width="3.50" shape="605.68,1094.90 607.47,1111.80"/>
    </edge>
    <edge id=":1037_3" function="internal">
        <lane id=":1037_3_0" index="0" disallow="pedestrian tram rail_urban rail rail_electric rail_fast ship" speed="8.11" length="3.44" width="3.50" shape="605.68,1094.90 605.16,1098.30"/>
    </edge>
    <edge id=":1037_4" function="internal">
        <lane id=":1037_4_0" index="0" disallow="pedestrian tram rail_urban rail rail_electric rail_fast ship" speed="8.11" length="12.74" width="3.50" shape="605.16,1098.30 605.10,1098.70 602.98,1101.23 599.34,1102.48 594.16,1102.46"/>
    </edge>
    <edge id=":104#1_0" function="internal">
        <lane id=":104#1_0_0" index="0" disallow="pedestrian tram rail_urban rail rail_electric rail_fast ship" speed="17.88" length="3.48" width="3.50" shape="354.48,922.63 354.70,923.60 355.26,924.17 355.82,924.74 356.04,925.71"/>
        <lane id=":104#1_0_1" index="1" disallow="pedestrian tram rail_urban rail rail_electric rail_fast ship" speed="17.88" length="3.48" width="3.25" shape="351.10,922.48 351.33,923.45 351.89,924.02 352.45,924.59 352.67,925.56"/>
        <lane id=":104#1_0_2" index="2" disallow="pedestrian tram rail_urban rail rail_electric rail_fast ship" speed="17.88" length="3.48" width="3.25" shape="347.86,922.34 348.08,923.30 348.64,923.88 349.20,924.45 349.43,925.42"/>
        <lane id=":104#1_0_3" index="3" allow="emergency authority" speed="17.88" length="3.48" width="3.50" shape="345.34,922.23 345.43,923.14 345.69,923.75 345.96,924.35 346.05,925.27"/>
    </edge>
    <edge id=":104#2_0" function="internal">
        <lane id=":104#2_0_0" index="0" disallow="pedestrian tram rail_urban rail rail_electric rail_fast ship" speed="17.88" length="8.28" width="3.50" shape="354.94,951.42 355.12,953.83 355.68,955.45 356.24,957.07 356.43,959.48"/>
        <lane id=":104#2_0_1" index="1" disallow="pedestrian tram rail_urban rail rail_electric rail_fast ship" speed="17.88" length="8.28" width="3.25" shape="351.56,951.27 351.75,953.68 352.31,955.30 352.87,956.93 353.06,959.34"/>
        <lane id=":104#2_0_2" index="2" disallow="pedestrian tram rail_urban rail rail_electric rail_fast ship" speed="17.88" length="8.28" width="3.25" shape="348.32,951.13 348.50,953.54 349.06,955.17 349.62,956.79 349.81,959.21"/>
        <lane id=":104#2_0_3" index="3" disallow="pedestrian tram rail_urban rail rail_electric rail_fast ship" speed="17.88" length="8.28" width="3.50" shape="344.92,950.98 345.11,953.40 345.68,955.02 346.25,956.65 346.44,959.07"/>
    </edge>
    <edge id=":104#3_0" function="internal">
        <lane id=":104#3_0_0" index="0" disallow="pedestrian tram rail_urban rail rail_electric rail_fast ship" speed="17.88" length="3.14" width="3.50" shape="355.22,988.60 355.33,989.51 355.61,990.11 355.89,990.71 356.01,991.62"/>
        <lane id=":104#3_0_1" index="1" disallow="pedestrian tram rail_urban rail rail_electric rail_fast ship" speed="17.88" length="3.14" width="3.25" shape="351.84,988.53 351.96,989.44 352.24,990.04 352.52,990.64 352.63,991.55"/>
        <lane id=":104#3_0_2" index="2" disallow="pedestrian tram rail_urban rail rail_electric rail_fast ship" speed="17.88" length="3.14" width="3.25" shape="348.59,988.46 348.71,989.37 348.99,989.97 349.27,990.57 349.38,991.49"/>
        <lane id=":104#3_0_3" index="3" disallow="pedestrian tram rail_urban rail rail_electric rail_fast ship" speed="17.88" length="3.14" width="3.50" shape="345.22,988.39 345.33,989.31 345.61,989.91 345.89,990.51 346.01,991.42"/>
        <lane id=":104#3_0_4" index="4" allow="emergency authority" speed="17.88" length="3.14" width="2.65" shape="342.57,988.34 342.62,989.24 342.75,989.85 342.89,990.46 342.93,991.36"/>
    </edge>
    <edge id=":1062_0" function="internal">
        <lane id=":1062_0_0" index="0" disallow="pedestrian tram rail_urban rail rail_electric rail_fast ship" speed="17.88" length="23.03" width="3.50" shape="664.79,1209.48 641.76,1209.28"/>
    </edge>
    <edge id=":1062_1" function="internal">
        <lane id=":1062_1_0" index="0" disallow="pedestrian tram rail_urban rail rail_electric rail_fast ship" speed="9.49" length="5.70" width="3.50" shape="664.79,1209.48 659.15,1208.67"/>
    </edge>
    <edge id=":1062_6" function="internal">
        <lane id=":1062_6_0" index="0" disallow="pedestrian tram rail_urban rail rail_electric rail_fast ship" speed="9.49" length="14.59" width="3.50" shape="659.15,1208.67 655.14,1206.33 652.75,1202.48 651.99,1197.11"/>
    </edge>
    <edge id=":1062_2" function="internal">
        <lane id=":1062_2_0" index="0" disallow="pedestrian tram rail_urban rail rail_electric rail_fast ship" speed="8.14" length="14.64" width="3.50" shape="655.49,1197.15 656.04,1200.98 657.78,1203.73 660.71,1205.40 664.81,1205.98"/>
    </edge>
    <edge id=":1062_3" function="internal">
        <lane id=":1062_3_0" index="0" disallow="pedestrian tram rail_urban rail rail_electric rail_fast ship" speed="9.62" length="20.88" width="3.50" shape="655.49,1197.15 654.59,1202.50 652.00,1206.30 647.72,1208.56 641.76,1209.28"/>
    </edge>
    <edge id=":1062_4" function="internal">
        <lane id=":1062_4_0" index="0" disallow="pedestrian tram rail_urban rail rail_electric rail_fast ship" speed="8.30" length="15.24" width="3.50" shape="641.78,1205.78 646.22,1205.27 649.40,1203.66 651.32,1200.94 651.99,1197.11"/>
    </edge>
    <edge id=":1062_5" function="internal">
        <lane id=":1062_5_0" index="0" disallow="pedestrian tram rail_urban rail rail_electric rail_fast ship" speed="17.88" length="23.03" width="3.50" shape="641.78,1205.78 664.81,1205.98"/>
    </edge>
    <edge id=":108.end_0" function="internal">
        <lane id=":108.end_0_0" index="0" disallow="pedestrian tram rail_urban rail rail_electric rail_fast ship" speed="3.82" length="5.11" width="3.50" shape="646.19,755.21,0.14 647.00,756.57,0.14 647.02,757.54,0.14 646.25,758.15,0.14 644.69,758.37,0.14"/>
    </edge>
    <edge id=":1080_0" function="internal">
        <lane id=":1080_0_0" index="0" disallow="pedestrian tram rail_urban rail rail_electric rail_fast ship" speed="17.88" length="16.62" width="3.50" shape="655.65,1179.37 655.50,1195.99"/>
    </edge>
    <edge id=":1080_1" function="internal">
        <lane id=":1080_1_0" index="0" disallow="pedestrian tram rail_urban rail rail_electric rail_fast ship" speed="8.46" length="4.33" width="3.50" shape="655.65,1179.37 654.85,1183.63"/>
    </edge>
    <edge id=":1080_6" function="internal">
        <lane id=":1080_6_0" index="0" disallow="pedestrian tram rail_urban rail rail_electric rail_fast ship" speed="8.46" length="13.10" width="3.50" shape="654.85,1183.63 652.52,1186.43 648.67,1187.77 643.29,1187.66"/>
    </edge>
    <edge id=":1080_2" function="internal">
        <lane id=":1080_2_0" index="0" disallow="pedestrian tram rail_urban rail rail_electric rail_fast ship" speed="6.92" length="11.27" width="3.50" shape="643.77,1184.20 647.42,1184.32 650.03,1183.55 651.61,1181.89 652.15,1179.34"/>
    </edge>
    <edge id=":1080_3" function="internal">
        <lane id=":1080_3_0" index="0" disallow="pedestrian tram rail_urban rail rail_electric rail_fast ship" speed="9.52" length="18.45" width="3.50" shape="643.77,1184.20 648.93,1185.54 652.61,1187.95 654.80,1191.43 655.50,1195.99"/>
    </edge>
    <edge id=":1080_4" function="internal">
        <lane id=":1080_4_0" index="0" disallow="pedestrian tram rail_urban rail rail_electric rail_fast ship" speed="8.17" length="13.32" width="3.50" shape="652.00,1195.95 651.48,1192.78 649.85,1190.34 647.13,1188.63 643.29,1187.66"/>
    </edge>
    <edge id=":1080_5" function="internal">
        <lane id=":1080_5_0" index="0" disallow="pedestrian tram rail_urban rail rail_electric rail_fast ship" speed="17.88" length="16.61" width="3.50" shape="652.00,1195.95 652.15,1179.34"/>
    </edge>
    <edge id=":1096_0" function="internal">
        <lane id=":1096_0_0" index="0" disallow="pedestrian tram rail_urban rail rail_electric rail_fast ship" speed="7.60" length="13.89" width="3.50" shape="665.73,1172.72 661.34,1172.59 658.20,1173.59 656.30,1175.73 655.65,1179.01"/>
    </edge>
    <edge id=":1096_1" function="internal">
        <lane id=":1096_1_0" index="0" disallow="pedestrian tram rail_urban rail rail_electric rail_fast ship" speed="17.88" length="21.91" width="3.50" shape="665.73,1172.72 644.04,1169.66"/>
    </edge>
    <edge id=":1096_2" function="internal">
        <lane id=":1096_2_0" index="0" disallow="pedestrian tram rail_urban rail rail_electric rail_fast ship" speed="17.88" length="21.90" width="3.50" shape="644.52,1166.20 666.21,1169.26"/>
    </edge>
    <edge id=":1096_3" function="internal">
        <lane id=":1096_3_0" index="0" disallow="pedestrian tram rail_urban rail rail_electric rail_fast ship" speed="9.64" length="5.31" width="3.50" shape="644.52,1166.20 649.42,1167.59 649.60,1167.72"/>
    </edge>
    <edge id=":1096_6" function="internal">
        <lane id=":1096_6_0" index="0" disallow="pedestrian tram rail_urban rail rail_electric rail_fast ship" speed="9.64" length="13.52" width="3.50" shape="649.60,1167.72 652.91,1170.19 654.98,1174.00 655.65,1179.01"/>
    </edge>
    <edge id=":1096_4" function="internal">
        <lane id=":1096_4_0" index="0" disallow="pedestrian tram rail_urban rail rail_electric rail_fast ship" speed="8.31" length="13.72" width="3.50" shape="652.15,1178.99 651.66,1175.34 650.15,1172.57 647.61,1170.68 644.04,1169.66"/>
    </edge>
    <edge id=":1096_5" function="internal">
        <lane id=":1096_5_0" index="0" disallow="pedestrian tram rail_urban rail rail_electric rail_fast ship" speed="9.02" length="20.08" width="3.50" shape="652.15,1178.99 653.06,1173.99 655.71,1170.71 660.09,1169.13 666.21,1169.26"/>
    </edge>
    <edge id=":111.end_0" function="internal">
        <lane id=":111.end_0_0" index="0" disallow="pedestrian tram rail_urban rail rail_electric rail_fast ship" speed="3.82" length="5.11" width="3.50" shape="711.85,1121.54 713.14,1120.62 714.11,1120.52 714.77,1121.24 715.13,1122.78"/>
    </edge>
    <edge id=":1116_0" function="internal">
        <lane id=":1116_0_0" index="0" disallow="pedestrian tram rail_urban rail rail_electric rail_fast ship" speed="15.65" length="14.51" width="3.50" shape="305.27,784.35,0.05 290.76,784.30,0.05"/>
    </edge>
    <edge id=":1116_1" function="internal">
        <lane id=":1116_1_0" index="0" disallow="pedestrian tram rail_urban rail rail_electric rail_fast ship" speed="8.16" length="14.62" width="3.25" shape="305.27,784.35,0.05 301.40,783.75,0.04 298.63,782.01,0.03 296.96,779.11,0.01 296.39,775.06"/>
    </edge>
    <edge id=":1116_2" function="internal">
        <lane id=":1116_2_0" index="0" disallow="pedestrian tram rail_urban rail rail_electric rail_fast ship" speed="6.59" length="9.21" width="3.50" shape="299.64,775.05 300.00,777.58,0.01 301.06,779.39,0.03 302.82,780.48,0.04 305.28,780.85,0.05"/>
    </edge>
    <edge id=":1116_3" function="internal">
        <lane id=":1116_3_0" index="0" disallow="pedestrian tram rail_urban rail rail_electric rail_fast ship" speed="6.56" length="9.17" width="3.25" shape="290.78,780.80,0.05 293.24,780.45,0.04 295.00,779.38,0.03 296.05,777.59,0.01 296.39,775.06"/>
    </edge>
    <edge id=":1116_4" function="internal">
        <lane id=":1116_4_0" index="0" disallow="pedestrian tram rail_urban rail rail_electric rail_fast ship" speed="15.65" length="14.50" width="3.50" shape="290.78,780.80,0.05 305.28,780.85,0.05"/>
    </edge>
    <edge id=":112.begin_0" function="internal">
        <lane id=":112.begin_0_0" index="0" disallow="pedestrian tram rail_urban rail rail_electric rail_fast ship" speed="3.82" length="5.11" width="3.50" shape="432.20,941.21,0.19 431.67,942.69,0.19 430.93,943.34,0.19 429.98,943.13,0.19 428.80,942.07,0.19"/>
    </edge>
    <edge id=":113.112_0" function="internal">
        <lane id=":113.112_0_0" index="0" disallow="pedestrian tram rail_urban rail rail_electric rail_fast ship" speed="17.88" length="0.31" width="3.50" shape="416.97,895.13,0.19 416.90,894.82,0.19"/>
    </edge>
    <edge id=":113.112_1" function="internal">
        <lane id=":113.112_1_0" index="0" disallow="pedestrian tram rail_urban rail rail_electric rail_fast ship" speed="17.88" length="0.27" width="3.50" shape="420.32,894.09,0.19 420.38,894.36,0.19"/>
    </edge>
    <edge id=":1131_0" function="internal">
        <lane id=":1131_0_0" index="0" disallow="pedestrian tram rail_urban rail rail_electric rail_fast ship" speed="17.88" length="21.12" width="3.50" shape="79.40,304.44 76.20,307.90 72.56,312.50 69.22,317.31 66.92,321.40"/>
    </edge>
    <edge id=":1131_1" function="internal">
        <lane id=":1131_1_0" index="0" disallow="pedestrian tram rail_urban rail rail_electric rail_fast ship" speed="10.07" length="4.40" width="3.50" shape="79.40,304.44 75.86,307.05,0.01"/>
    </edge>
    <edge id=":1131_6" function="internal">
        <lane id=":1131_6_0" index="0" disallow="pedestrian tram rail_urban rail rail_electric rail_fast ship" speed="10.07" length="15.53" width="3.50" shape="75.86,307.05,0.01 74.93,307.73,0.01 70.44,309.12,0.02 65.93,308.61,0.02 61.39,306.20,0.03"/>
    </edge>
    <edge id=":1131_2" function="internal">
        <lane id=":1131_2_0" index="0" disallow="pedestrian tram rail_urban rail rail_electric rail_fast ship" speed="8.79" length="14.97" width="3.50" shape="63.47,303.38,0.03 66.84,305.16,0.02 70.21,305.50,0.02 73.60,304.42,0.01 76.98,301.90"/>
    </edge>
    <edge id=":1131_3" function="internal">
        <lane id=":1131_3_0" index="0" disallow="pedestrian tram rail_urban rail rail_electric rail_fast ship" speed="10.28" length="20.03" width="3.50" shape="63.47,303.38,0.03 66.92,306.90,0.02 68.65,311.07,0.02 68.65,315.91,0.01 66.92,321.40"/>
    </edge>
    <edge id=":1131_4" function="internal">
        <lane id=":1131_4_0" index="0" disallow="pedestrian tram rail_urban rail rail_electric rail_fast ship" speed="9.04" length="15.25" width="3.50" shape="63.72,319.98 65.09,315.71,0.01 65.16,311.99,0.02 63.92,308.82,0.02 61.39,306.20,0.03"/>
    </edge>
    <edge id=":1131_5" function="internal">
        <lane id=":1131_5_0" index="0" disallow="pedestrian tram rail_urban rail rail_electric rail_fast ship" speed="17.88" length="22.48" width="3.50" shape="63.72,319.98 66.14,315.71 69.76,310.52 73.67,305.54 76.98,301.90"/>
    </edge>
    <edge id=":1139_0" function="internal">
        <lane id=":1139_0_0" index="0" disallow="pedestrian tram rail_urban rail rail_electric rail_fast ship" speed="17.88" length="23.11" width="3.50" shape="556.93,724.75 578.66,732.36"/>
        <lane id=":1139_0_1" index="1" disallow="pedestrian tram rail_urban rail rail_electric rail_fast ship" speed="17.88" length="23.11" width="3.50" shape="555.71,728.30 577.50,735.66"/>
        <lane id=":1139_0_2" index="2" disallow="pedestrian tram rail_urban rail rail_electric rail_fast ship" speed="17.88" length="23.11" width="3.50" shape="555.71,728.30 561.38,730.80 565.46,733.41 569.83,736.14 576.35,738.97"/>
    </edge>
    <edge id=":1149_0" function="internal">
        <lane id=":1149_0_0" index="0" disallow="pedestrian tram rail_urban rail rail_electric rail_fast ship" speed="17.88" length="85.51" width="3.50" shape="337.07,1252.85 333.39,1167.31"/>
        <lane id=":1149_0_1" index="1" disallow="pedestrian tram rail_urban rail rail_electric rail_fast ship" speed="17.88" length="85.51" width="3.50" shape="340.57,1252.80 336.89,1167.32"/>
        <lane id=":1149_0_2" index="2" disallow="pedestrian tram rail_urban rail rail_electric rail_fast ship" speed="17.88" length="85.51" width="3.50" shape="344.07,1252.75 340.39,1167.34"/>
        <lane id=":1149_0_3" index="3" disallow="pedestrian tram rail_urban rail rail_electric rail_fast ship" speed="17.88" length="85.51" width="3.50" shape="344.07,1252.75 343.89,1167.35"/>
        <lane id=":1149_0_4" index="4" disallow="pedestrian tram rail_urban rail rail_electric rail_fast ship" speed="17.88" length="85.51" width="3.50" shape="344.07,1252.75 347.39,1167.36"/>
    </edge>
    <edge id=":1163_0" function="internal">
        <lane id=":1163_0_0" index="0" disallow="pedestrian tram rail_urban rail rail_electric rail_fast ship" speed="12.53" length="37.54" width="3.25" shape="549.92,913.81 544.19,921.17,0.03 536.92,924.55,0.05 528.09,923.96,0.08 517.71,919.39,0.11"/>
    </edge>
    <edge id=":1163_1" function="internal">
        <lane id=":1163_1_0" index="0" disallow="pedestrian tram rail_urban rail rail_electric rail_fast ship" speed="17.88" length="39.24" width="3.30" shape="521.00,913.79,0.11 528.91,917.76,0.08 538.65,921.45,0.05 548.63,923.92,0.02 557.25,924.22"/>
        <lane id=":1163_1_1" index="1" disallow="pedestrian tram rail_urban rail rail_electric rail_fast ship" speed="17.88" length="39.24" width="3.20" shape="519.35,916.59,0.11 527.60,920.63,0.08 538.06,924.46,0.05 548.77,927.07,0.02 557.73,927.44"/>
    </edge>
    <edge id=":1191_0" function="internal">
        <lane id=":1191_0_0" index="0" disallow="pedestrian tram rail_urban rail rail_electric rail_fast ship" speed="9.25" length="17.20" width="3.50" shape="464.38,891.70 460.31,894.22 457.87,897.38 457.08,901.19 457.93,905.64"/>
    </edge>
    <edge id=":1191_1" function="internal">
        <lane id=":1191_1_0" index="0" disallow="pedestrian tram rail_urban rail rail_electric rail_fast ship" speed="13.95" length="24.74" width="5.00" shape="448.52,857.29 449.32,862.45 451.81,867.45 456.01,872.29 461.89,876.99"/>
    </edge>
    <edge id=":1191_2" function="internal">
        <lane id=":1191_2_0" index="0" disallow="pedestrian tram rail_urban rail rail_electric rail_fast ship" speed="17.88" length="49.95" width="3.50" shape="448.52,857.29 449.49,867.73 451.95,881.67 455.05,895.51 457.93,905.64"/>
        <lane id=":1191_2_1" index="1" disallow="pedestrian tram rail_urban rail rail_electric rail_fast ship" speed="17.88" length="49.95" width="3.50" shape="445.02,857.26 446.02,867.89 448.55,882.23 451.72,896.48 454.62,906.79"/>
    </edge>
    <edge id=":1207_0" function="internal">
        <lane id=":1207_0_0" index="0" disallow="pedestrian tram rail_urban rail rail_electric rail_fast ship" speed="7.60" length="25.81" width="6.00" shape="407.39,757.48,0.30 412.54,751.41,0.30 417.18,749.72,0.30 421.32,752.42,0.30 424.95,759.51,0.30"/>
    </edge>
    <edge id=":1213_0" function="internal">
        <lane id=":1213_0_0" index="0" disallow="pedestrian tram rail_urban rail rail_electric rail_fast ship" speed="7.10" length="11.15" width="3.50" shape="565.81,1140.78 562.74,1140.79 560.44,1141.78 558.91,1143.77 558.16,1146.74"/>
    </edge>
    <edge id=":1213_1" function="internal">
        <lane id=":1213_1_0" index="0" disallow="pedestrian tram rail_urban rail rail_electric rail_fast ship" speed="8.73" length="16.62" width="3.50" shape="565.81,1140.78 561.32,1139.52 558.27,1137.21 556.65,1133.86 556.48,1129.46"/>
    </edge>
    <edge id=":1213_2" function="internal">
        <lane id=":1213_2_0" index="0" disallow="pedestrian tram rail_urban rail rail_electric rail_fast ship" speed="7.25" length="11.10" width="3.50" shape="559.96,1129.84 560.09,1132.74 561.19,1134.95 563.26,1136.48 566.31,1137.32"/>
    </edge>
    <edge id=":1213_3" function="internal">
        <lane id=":1213_3_0" index="0" disallow="pedestrian tram rail_urban rail rail_electric rail_fast ship" speed="17.88" length="17.00" width="3.50" shape="559.96,1129.84 558.16,1146.74"/>
    </edge>
    <edge id=":1213_4" function="internal">
        <lane id=":1213_4_0" index="0" disallow="pedestrian tram rail_urban rail rail_electric rail_fast ship" speed="17.88" length="17.01" width="3.50" shape="554.68,1146.38 556.48,1129.46"/>
    </edge>
    <edge id=":1213_5" function="internal">
        <lane id=":1213_5_0" index="0" disallow="pedestrian tram rail_urban rail rail_electric rail_fast ship" speed="8.61" length="4.91" width="3.50" shape="554.68,1146.38 555.83,1141.86 555.97,1141.66"/>
    </edge>
    <edge id=":1213_6" function="internal">
        <lane id=":1213_6_0" index="0" disallow="pedestrian tram rail_urban rail rail_electric rail_fast ship" speed="8.61" length="12.03" width="3.50" shape="555.97,1141.66 558.15,1138.84 561.64,1137.33 566.31,1137.32"/>
    </edge>
    <edge id=":1230_0" function="internal">
        <lane id=":1230_0_0" index="0" disallow="pedestrian tram rail_urban rail rail_electric rail_fast ship" speed="17.88" length="9.16" width="2.50" shape="272.81,860.90,0.13 263.64,860.98,0.13"/>
        <lane id=":1230_0_1" index="1" disallow="pedestrian tram rail_urban rail rail_electric rail_fast ship" speed="17.88" length="9.16" width="2.50" shape="272.79,858.40,0.13 263.64,858.48,0.13"/>
    </edge>
    <edge id=":1230_2" function="internal">
        <lane id=":1230_2_0" index="0" disallow="pedestrian tram rail_urban rail rail_electric rail_fast ship" speed="9.60" length="7.01" width="2.50" shape="263.64,855.98,0.13 270.64,856.27,0.13"/>
    </edge>
    <edge id=":1237_0" function="internal">
        <lane id=":1237_0_0" index="0" disallow="pedestrian tram rail_urban rail rail_electric rail_fast ship" speed="10.81" length="33.98" width="3.25" shape="528.42,731.68 523.51,726.19 517.36,725.35 509.99,729.18 501.38,737.67"/>
    </edge>
    <edge id=":1237_1" function="internal">
        <lane id=":1237_1_0" index="0" disallow="pedestrian tram rail_urban rail rail_electric rail_fast ship" speed="17.88" length="48.01" width="3.50" shape="528.42,731.68 521.41,722.65,0.08 512.25,714.80,0.17 502.45,707.41,0.26 493.56,699.78,0.35"/>
        <lane id=":1237_1_1" index="1" disallow="pedestrian tram rail_urban rail rail_electric rail_fast ship" speed="17.88" length="48.01" width="3.50" shape="531.71,729.88 524.58,720.74,0.08 515.13,712.66,0.17 505.06,705.05,0.26 496.04,697.32,0.35"/>
    </edge>
    <edge id=":1237_3" function="internal">
        <lane id=":1237_3_0" index="0" disallow="pedestrian tram rail_urban rail rail_electric rail_fast ship" speed="15.80" length="47.05" width="3.50" shape="535.00,728.07 529.52,715.14 528.05,703.61 530.60,693.47 537.16,684.73"/>
    </edge>
    <edge id=":1237_4" function="internal">
        <lane id=":1237_4_0" index="0" disallow="pedestrian tram rail_urban rail rail_electric rail_fast ship" speed="7.32" length="19.18" width="3.75" shape="535.00,728.07 534.54,724.36 537.92,723.33 543.46,724.18 549.47,726.09"/>
    </edge>
    <edge id=":1237_5" function="internal">
        <lane id=":1237_5_0" index="0" disallow="pedestrian tram rail_urban rail rail_electric rail_fast ship" speed="10.51" length="33.54" width="3.75" shape="548.58,696.95 541.83,705.22 539.95,712.25 542.94,718.04 550.81,722.58"/>
    </edge>
    <edge id=":1237_6" function="internal">
        <lane id=":1237_6_0" index="0" disallow="pedestrian tram rail_urban rail rail_electric rail_fast ship" speed="17.88" length="62.25" width="3.25" shape="546.15,694.44 534.00,705.99 520.81,718.42 509.09,729.66 501.38,737.67"/>
    </edge>
    <edge id=":1237_7" function="internal">
        <lane id=":1237_7_0" index="0" disallow="pedestrian tram rail_urban rail rail_electric rail_fast ship" speed="15.74" length="57.26" width="3.50" shape="543.72,691.92 529.49,703.14,0.11 516.39,708.19,0.20 504.42,707.07,0.27 493.56,699.78,0.35"/>