<?xml version='1.0' encoding='UTF-8'?>
<routes>
  <vType accel="1.3" carFollowModel="IDM" decel="4" delta="4" emergencyDecel="7" id="truck" impatience="0.0" jmCrossingGap="10" jmIgnoreFoeProb="0" jmIgnoreFoeSpeed="0" jmIgnoreJunctionFoeProb="0" jmSigmaMinor="0.5" jmStoplineGap="1" jmTimegapMinor="1" lcAssertive="1.0" lcCooperative="1.0" lcCooperativeSpeed="1.0" lcKeepRight="1.0" lcKeepRightAcceptanceTime="-1" lcLookaheadLeft="2.0" lcOpposite="1.0" lcOvertakeDeltaSpeedFactor="0" lcOvertakeRight="0" lcSpeedGain="1.0" lcSpeedGainLookahead="0" lcSpeedGainRight="0.1" lcStrategic="1.0" length="7.1" maxSpeed="36.11" minGap="2.5" speedDev="0.05" speedFactor="1.0" tau="1.0" vClass="truck" />
  <vType accel="1.3418418606957725" carFollowModel="IDM" decel="4.5" delta="7.222617943442938" emergencyDecel="9" id="passenger" impatience="0.0" jmCrossingGap="10" jmIgnoreFoeProb="0" jmIgnoreFoeSpeed="0" jmIgnoreJunctionFoeProb="0.33283265383973487" jmSigmaMinor="0.5" jmStoplineGap="1" jmTimegapMinor="1" lcAssertive="4.026152732144308" lcCooperative="1.0" lcCooperativeSpeed="1.0" lcKeepRight="1.0" lcKeepRightAcceptanceTime="-1" lcLookaheadLeft="2.0" lcOpposite="1.0" lcOvertakeDeltaSpeedFactor="0" lcOvertakeRight="0" lcSpeedGain="1.0" lcSpeedGainLookahead="0" lcSpeedGainRight="0.1" lcStrategic="1.0" length="4.427823407131054" maxSpeed="55.55" minGap="4.471584407781625" speedDev="0.27782562048494386" speedFactor="1.0639180488195652" tau="0.4458833812366233" vClass="passenger" />
</routes>