<?xml version="1.0" encoding="UTF-8"?>

<!-- generated on 2024-01-10 12:00:38 by Eclipse SUMO netedit Version 1.12.0
<configuration xmlns:xsi="http://www.w3.org/2001/XMLSchema-instance" xsi:noNamespaceSchemaLocation="http://sumo.dlr.de/xsd/netconvertConfiguration.xsd">

    <input>
        <sumo-net-file value="D:\SEU\TLab\华为三期\Intersection_A\IntersectionA.net.xml"/>
    </input>

    <output>
        <output-file value="D:\SEU\TLab\华为三期\Intersection_A\IntersectionA.net.xml"/>
    </output>

    <processing>
        <geometry.min-radius.fix.railways value="false"/>
        <geometry.max-grade.fix value="false"/>
        <offset.disable-normalization value="true"/>
        <lefthand value="false"/>
    </processing>

    <junctions>
        <no-turnarounds value="true"/>
        <junctions.corner-detail value="5"/>
        <junctions.limit-turn-speed value="5.5"/>
        <rectangular-lane-cut value="true"/>
    </junctions>

    <pedestrian>
        <walkingareas value="false"/>
    </pedestrian>

    <netedit>
        <additional-files value="D:\SEU\TLab\华为三期\Intersection_A\e3_det.xml"/>
    </netedit>

    <report>
        <aggregate-warnings value="5"/>
    </report>

</configuration>
-->

<additional xmlns:xsi="http://www.w3.org/2001/XMLSchema-instance" xsi:noNamespaceSchemaLocation="http://sumo.dlr.de/xsd/additional_file.xsd">
    <e3Detector id="NBL" pos="369.42,550.34" freq="300.00" openEntry="true" file="e3_detector.xml">
        <detEntry lane="-94#1_4" pos="90.00"/>
        <detEntry lane="-94#1_5" pos="90.00"/>
        <detExit lane="-94#1_4" pos="132.93"/>
        <detExit lane="-94#1_5" pos="132.77"/>
    </e3Detector>
    <e3Detector id="NBR" pos="370.39,531.79" freq="300.00" openEntry="true" file="e3_detector.xml">
        <detEntry lane="-94#1_0" pos="90.00"/>
        <detExit lane="-94#1_0" pos="133.05"/>
    </e3Detector>
    <e3Detector id="NBT" pos="370.14,544.44" freq="300.00" openEntry="true" file="e3_detector.xml">
        <detEntry lane="-94#1_1" pos="90.00"/>
        <detEntry lane="-94#1_2" pos="90.00"/>
        <detEntry lane="-94#1_3" pos="90.00"/>
        <detExit lane="-94#1_1" pos="132.88"/>
        <detExit lane="-94#1_2" pos="132.78"/>
        <detExit lane="-94#1_3" pos="132.74"/>
    </e3Detector>
    <e3Detector id="SBL" pos="308.78,651.09" freq="300.00" openEntry="true" file="e3_detector.xml">
        <detEntry lane="-155_4" pos="78.00"/>
        <detEntry lane="-155_5" pos="78.00"/>
        <detExit lane="-155_4" pos="120.42"/>
        <detExit lane="-155_5" pos="120.44"/>
    </e3Detector>
    <e3Detector id="SBR" pos="309.07,636.71" freq="300.00" openEntry="true" file="e3_detector.xml">
        <detEntry lane="-155_0" pos="78.00"/>
        <detExit lane="-155_0" pos="120.49"/>
    </e3Detector>
    <e3Detector id="SBT" pos="308.74,645.42" freq="300.00" openEntry="true" file="e3_detector.xml">
        <detEntry lane="-155_1" pos="78.00"/>
        <detEntry lane="-155_2" pos="78.00"/>
        <detEntry lane="-155_3" pos="78.00"/>
        <detExit lane="-155_1" pos="120.20"/>
        <detExit lane="-155_2" pos="120.15"/>
        <detExit lane="-155_3" pos="120.17"/>
    </e3Detector>
	
	<!--<e3Detector id="NBL" pos="369.42,550.34" freq="60.00" openEntry="true" file="e3_detector.xml">
        <detEntry lane="-94#1_4" pos="90.00"/>
        <detEntry lane="-94#1_5" pos="90.00"/>
        <detExit lane="-94#1_4" pos="132.93"/>
        <detExit lane="-94#1_5" pos="132.77"/>
    </e3Detector>
    <e3Detector id="NBR" pos="370.39,531.79" freq="60.00" openEntry="true" file="e3_detector.xml">
        <detEntry lane="-94#1_0" pos="90.00"/>
        <detExit lane="-94#1_0" pos="133.05"/>
    </e3Detector>
    <e3Detector id="NBT" pos="370.14,544.44" freq="60.00" openEntry="true" file="e3_detector.xml">
        <detEntry lane="-94#1_1" pos="90.00"/>
        <detEntry lane="-94#1_2" pos="90.00"/>
        <detEntry lane="-94#1_3" pos="90.00"/>
        <detExit lane="-94#1_1" pos="132.88"/>
        <detExit lane="-94#1_2" pos="132.78"/>
        <detExit lane="-94#1_3" pos="132.74"/>
    </e3Detector>
    <e3Detector id="SBL" pos="308.78,651.09" freq="60.00" openEntry="true" file="e3_detector.xml">
        <detEntry lane="-155_4" pos="78.00"/>
        <detEntry lane="-155_5" pos="78.00"/>
        <detExit lane="-155_4" pos="120.42"/>
        <detExit lane="-155_5" pos="120.44"/>
    </e3Detector>
    <e3Detector id="SBR" pos="309.07,636.71" freq="60.00" openEntry="true" file="e3_detector.xml">
        <detEntry lane="-155_0" pos="78.00"/>
        <detExit lane="-155_0" pos="120.49"/>
    </e3Detector>
    <e3Detector id="SBT" pos="308.74,645.42" freq="60.00" openEntry="true" file="e3_detector.xml">
        <detEntry lane="-155_1" pos="78.00"/>
        <detEntry lane="-155_2" pos="78.00"/>
        <detEntry lane="-155_3" pos="78.00"/>
        <detExit lane="-155_1" pos="120.20"/>
        <detExit lane="-155_2" pos="120.15"/>
        <detExit lane="-155_3" pos="120.17"/>
    </e3Detector>-->
</additional>
