<routes>
	<trip arrivalLane="1" arrivalPos="44.24011173782931" depart="0" departLane="2" departPos="109.58214831095134" departSpeed="0.0" from="-94#1" id="0" to="-198" type="car" />
	<trip arrivalLane="1" arrivalPos="40.95" depart="0" departLane="2" departPos="101.83238427609756" departSpeed="0.0" from="-155" id="56" to="-89" type="car" />
	<trip arrivalLane="1" arrivalPos="5.130477560617525" depart="0" departLane="1" departPos="61.586133038479005" departSpeed="0.0" from="-103" id="55" to="-128#0" type="car" />
	<trip arrivalLane="1" arrivalPos="40.95" depart="0" departLane="2" departPos="94.33080290314152" departSpeed="0.0" from="-155" id="54" to="-89" type="car" />
	<trip arrivalLane="1" arrivalPos="40.95" depart="0" departLane="2" departPos="85.93047451041954" departSpeed="0.0" from="-155" id="53" to="-89" type="car" />
	<trip arrivalLane="1" arrivalPos="11.72707489880228" depart="0" departLane="4" departPos="115.46337622434535" departSpeed="0.0" from="-155" id="52" to="-77" type="car" />
	<trip arrivalLane="0" arrivalPos="40.95" depart="0" departLane="1" departPos="101.8634606572506" departSpeed="0.0" from="-155" id="50" to="-89" type="car" />
	<trip arrivalLane="2" arrivalPos="40.95" depart="0" departLane="3" departPos="90.79753416827272" departSpeed="0.0" from="-155" id="49" to="-89" type="car" />
	<trip arrivalLane="2" arrivalPos="5.130477560617525" depart="0" departLane="5" departPos="95.46374202754085" departSpeed="0.0" from="-94#1" id="48" to="-128#0" type="car" />
	<trip arrivalLane="2" arrivalPos="44.470234659681" depart="0" departLane="3" departPos="119.64205092397891" departSpeed="0.0" from="-94#1" id="47" to="-198" type="car" />
	<trip arrivalLane="2" arrivalPos="5.130477560617525" depart="0" departLane="2" departPos="62.883304826752685" departSpeed="0.0" from="-103" id="46" to="-128#0" type="car" />
	<trip arrivalLane="0" arrivalPos="40.95" depart="0" departLane="1" departPos="76.85658680094066" departSpeed="0.0" from="-155" id="45" to="-89" type="car" />
	<trip arrivalLane="0" arrivalPos="11.309875193929894" depart="0" departLane="4" departPos="120.71" departSpeed="2.0958980393173867" from="-155" id="44" to="-77" type="car" />
	<trip arrivalLane="0" arrivalPos="44.04430505038369" depart="0" departLane="0" departPos="57.74565896503413" departSpeed="0.0" from="-103" id="43" to="-198" type="car" />
	<trip arrivalLane="0" arrivalPos="40.95" depart="0" departLane="1" departPos="109.96882762244132" departSpeed="0.0" from="-155" id="42" to="-89" type="car" />
	<trip arrivalLane="1" arrivalPos="5.130477560617525" depart="0" departLane="0" departPos="120.412750774567" departSpeed="4.79631818643297" from="-155" id="41" to="-128#0" type="car" />
	<trip arrivalLane="0" arrivalPos="40.95" depart="0" departLane="1" departPos="92.56216211269394" departSpeed="0.0" from="-155" id="57" to="-89" type="car" />
	<trip arrivalLane="0" arrivalPos="43.94529561846704" depart="0" departLane="1" departPos="130.41867847824233" departSpeed="0.0" from="-94#1" id="40" to="-198" type="car" />
	<trip arrivalLane="2" arrivalPos="40.95" depart="0" departLane="0" departPos="38.306494872290834" departSpeed="2.12059315556987" from="60" id="58" to="-89" type="car" />
	<trip arrivalLane="2" arrivalPos="40.95" depart="0" departLane="3" departPos="119.40220766262664" departSpeed="0.0" from="-155" id="60" to="-89" type="car" />
	<trip arrivalLane="2" arrivalPos="5.130477560617525" depart="0" departLane="5" departPos="84.66408045911191" departSpeed="0.0" from="-94#1" id="1938" to="-128#0" type="car" />
	<trip arrivalLane="0" arrivalPos="11.341655725921049" depart="0" departLane="1" departPos="44.14" departSpeed="0.0" from="60" id="845" to="-77" type="car" />
	<trip arrivalLane="2" arrivalPos="45.53792612493488" depart="0" departLane="0" departPos="47.0394678601898" departSpeed="0.0" from="-103" id="221" to="-198" type="car" />
	<trip arrivalLane="2" arrivalPos="44.07014166021486" depart="0" departLane="5" departPos="35.76567713211713" departSpeed="0.0" from="60" id="130" to="-198" type="car" />
	<trip arrivalLane="0" arrivalPos="5.130477560617525" depart="0" departLane="4" departPos="85.30257130647996" departSpeed="0.0" from="-94#1" id="84" to="-128#0" type="car" />
	<trip arrivalLane="0" arrivalPos="5.130477560617525" depart="0" departLane="4" departPos="130.80330095566302" departSpeed="0.0" from="-94#1" id="72" to="-128#0" type="car" />
	<trip arrivalLane="0" arrivalPos="44.04455022842828" depart="0" departLane="4" departPos="44.12391860287209" departSpeed="0.0" from="60" id="70" to="-198" type="car" />
	<trip arrivalLane="0" arrivalPos="5.130477560617525" depart="0" departLane="5" departPos="44.103919222883015" departSpeed="0.0" from="60" id="69" to="-128#0" type="car" />
	<trip arrivalLane="1" arrivalPos="5.130477560617525" depart="0" departLane="1" departPos="52.23186140809589" departSpeed="0.0" from="-103" id="68" to="-128#0" type="car" />
	<trip arrivalLane="1" arrivalPos="43.84001873781367" depart="0" departLane="2" departPos="130.58330157452585" departSpeed="0.0" from="-94#1" id="67" to="-198" type="car" />
	<trip arrivalLane="0" arrivalPos="5.130477560617525" depart="0" departLane="4" departPos="122.50442007645717" departSpeed="0.0" from="-94#1" id="65" to="-128#0" type="car" />
	<trip arrivalLane="0" arrivalPos="44.24330585806506" depart="0" departLane="4" departPos="37.64575013848363" departSpeed="0.5980216087692933" from="60" id="64" to="-198" type="car" />
	<trip arrivalLane="2" arrivalPos="5.130477560617525" depart="0" departLane="5" departPos="128.86833017248455" departSpeed="0.0" from="-94#1" id="63" to="-128#0" type="car" />
	<trip arrivalLane="2" arrivalPos="44.77033642071734" depart="0" departLane="3" departPos="129.24295485189168" departSpeed="0.0" from="-94#1" id="62" to="-198" type="car" />
	<trip arrivalLane="0" arrivalPos="40.95" depart="0" departLane="0" departPos="44.14" departSpeed="1.8222417718959099" from="60" id="61" to="-89" type="car" />
	<trip arrivalLane="2" arrivalPos="11.799340929533493" depart="0" departLane="5" departPos="113.40814191558898" departSpeed="0.0" from="-155" id="59" to="-77" type="car" />
	<trip arrivalLane="2" arrivalPos="5.130477560617525" depart="0" departLane="5" departPos="119.26792347400232" departSpeed="0.0" from="-94#1" id="39" to="-128#0" type="car" />
	<trip arrivalLane="2" arrivalPos="11.626286734187165" depart="0" departLane="3" departPos="35.92749630370381" departSpeed="0.0" from="60" id="3289" to="-77" type="car" />
	<trip arrivalLane="1" arrivalPos="5.130477560617525" depart="0" departLane="4" departPos="91.80110704183724" departSpeed="0.0" from="-94#1" id="37" to="-128#0" type="car" />
	<trip arrivalLane="0" arrivalPos="44.64462714981685" depart="0" departLane="1" departPos="98.82047571069693" departSpeed="0.0" from="-94#1" id="16" to="-198" type="car" />
	<trip arrivalLane="0" arrivalPos="5.130477560617525" depart="0" departLane="4" departPos="107.90205797352124" departSpeed="0.0" from="-94#1" id="14" to="-128#0" type="car" />
	<trip arrivalLane="0" arrivalPos="5.130477560617525" depart="0" departLane="0" departPos="83.09822582746348" departSpeed="2.9993597925197926" from="-155" id="13" to="-128#0" type="car" />
	<trip arrivalLane="0" arrivalPos="40.95" depart="0" departLane="1" departPos="117.3642015401546" departSpeed="0.0" from="-155" id="12" to="-89" type="car" />
	<trip arrivalLane="0" arrivalPos="44.34415773438925" depart="0" departLane="1" departPos="106.41943195980302" departSpeed="0.0" from="-94#1" id="11" to="-198" type="car" />
	<trip arrivalLane="1" arrivalPos="5.130477560617525" depart="0" departLane="0" departPos="107.69816308154724" departSpeed="2.4167279513995177" from="-155" id="10" to="-128#0" type="car" />
	<trip arrivalLane="0" arrivalPos="44.04504179563133" depart="0" departLane="1" departPos="88.81898161039686" departSpeed="0.0" from="-94#1" id="9" to="-198" type="car" />
	<trip arrivalLane="0" arrivalPos="44.04528818550277" depart="0" departLane="1" departPos="123.01921193095453" departSpeed="0.0" from="-94#1" id="8" to="-198" type="car" />
	<trip arrivalLane="2" arrivalPos="45.671128733412864" depart="0" departLane="2" departPos="32.47582634491579" departSpeed="14.687894743931796" from="-198" id="7" to="-198" type="car" />
	<trip arrivalLane="2" arrivalPos="12.036699303174384" depart="0" departLane="5" departPos="120.71" departSpeed="1.232576219605641" from="-155" id="6" to="-77" type="car" />
	<trip arrivalLane="0" arrivalPos="5.130477560617525" depart="0" departLane="4" departPos="115.30404027288408" departSpeed="0.0" from="-94#1" id="5" to="-128#0" type="car" />
	<trip arrivalLane="0" arrivalPos="11.453710294843386" depart="0" departLane="4" departPos="107.05902616530456" departSpeed="0.0" from="-155" id="4" to="-77" type="car" />
	<trip arrivalLane="0" arrivalPos="11.551937319879585" depart="0" departLane="4" departPos="86.96085420725676" departSpeed="0.0" from="-155" id="3" to="-77" type="car" />
	<trip arrivalLane="1" arrivalPos="11.600714738396556" depart="0" departLane="4" departPos="97.1649084580204" departSpeed="0.0" from="-155" id="2" to="-77" type="car" />
	<trip arrivalLane="1" arrivalPos="44.040373059050765" depart="0" departLane="2" departPos="91.87983537714786" departSpeed="0.0" from="-94#1" id="1" to="-198" type="car" />
	<trip arrivalLane="0" arrivalPos="44.14454278802937" depart="0" departLane="1" departPos="116.018829125248" departSpeed="0.0" from="-94#1" id="17" to="-198" type="car" />
	<trip arrivalLane="0" arrivalPos="43.64470361170531" depart="0" departLane="0" departPos="6.907571723346996" departSpeed="10.642266606073576" from="-198" id="18" to="-198" type="car" />
	<trip arrivalLane="2" arrivalPos="5.130477560617525" depart="0" departLane="5" departPos="103.36555715034623" departSpeed="0.0" from="-94#1" id="38" to="-128#0" type="car" />
	<trip arrivalLane="2" arrivalPos="40.95" depart="0" departLane="3" departPos="100.09882574363762" departSpeed="0.0" from="-155" id="20" to="-89" type="car" />
	<trip arrivalLane="2" arrivalPos="44.53837031735712" depart="0" departLane="2" departPos="0.0" departSpeed="9.462571029167698" from="-198" id="36" to="-198" type="car" />
	<trip arrivalLane="2" arrivalPos="5.130477560617525" depart="0" departLane="5" departPos="110.76502368662472" departSpeed="0.0" from="-94#1" id="19" to="-128#0" type="car" />
	<trip arrivalLane="2" arrivalPos="40.95" depart="0" departLane="3" departPos="111.99883658309471" departSpeed="0.0" from="-155" id="34" to="-89" type="car" />
	<trip arrivalLane="1" arrivalPos="40.95" depart="0" departLane="3" departPos="65.61" departSpeed="0.0" from="-103" id="32" to="-89" type="car" />
	<trip arrivalLane="1" arrivalPos="40.95" depart="0" departLane="2" departPos="109.63470523809902" departSpeed="0.0" from="-155" id="31" to="-89" type="car" />
	<trip arrivalLane="0" arrivalPos="5.130477560617525" depart="0" departLane="4" departPos="99.10183276619128" departSpeed="0.0" from="-94#1" id="30" to="-128#0" type="car" />
	<trip arrivalLane="0" arrivalPos="40.95" depart="0" departLane="1" departPos="84.56323132465576" departSpeed="0.0" from="-155" id="29" to="-89" type="car" />
	<trip arrivalLane="1" arrivalPos="40.95" depart="0" departLane="2" departPos="119.23258747428218" departSpeed="0.9001400486260897" from="-155" id="28" to="-89" type="car" />
	<trip arrivalLane="2" arrivalPos="40.95" depart="0" departLane="4" departPos="65.61" departSpeed="0.0" from="-103" id="35" to="-89" type="car" />
	<trip arrivalLane="2" arrivalPos="40.95" depart="0" departLane="3" departPos="82.20298904763693" departSpeed="0.0" from="-155" id="26" to="-89" type="car" />
	<trip arrivalLane="0" arrivalPos="10.892165411509785" depart="0" departLane="4" departPos="76.56585770098704" departSpeed="0.0" from="-155" id="25" to="-77" type="car" />
	<trip arrivalLane="2" arrivalPos="5.130477560617525" depart="0" departLane="0" departPos="95.909429489908" departSpeed="3.0109220204217877" from="-155" id="23" to="-128#0" type="car" />
	<trip arrivalLane="2" arrivalPos="45.37041310425571" depart="0" departLane="5" departPos="105.60733563143552" departSpeed="0.0" from="-155" id="22" to="-198" type="car" />
	<trip arrivalLane="1" arrivalPos="44.33961159066895" depart="0" departLane="2" departPos="101.0796464735898" departSpeed="0.0" from="-94#1" id="21" to="-198" type="car" />
	<trip arrivalLane="1" arrivalPos="43.740272560963824" depart="0" departLane="2" departPos="117.08186196951476" departSpeed="0.0" from="-94#1" id="27" to="-198" type="car" />
	<trip arrivalLane="0" arrivalPos="40.95" depart="1" departLane="0" departPos="1.270115706921044" departSpeed="7.953613919447535" from="-89" id="24" to="-89" type="car" />
	<trip arrivalLane="0" arrivalPos="5.130477560617525" depart="1" departLane="0" departPos="73.41117185640039" departSpeed="3.8961783840686532" from="-155" id="102" to="-128#0" type="car" />
	<trip arrivalLane="0" arrivalPos="5.130477560617525" depart="1" departLane="0" departPos="0.0" departSpeed="8.758596613074019" from="-128#0" id="15" to="-128#0" type="car" />
	<trip arrivalLane="1" arrivalPos="11.776177764177111" depart="2" departLane="2" departPos="34.97704770201081" departSpeed="6.002325641808087" from="60" id="148" to="-77" type="car" />
	<trip arrivalLane="0" arrivalPos="40.95" depart="2" departLane="0" departPos="35.00154158671718" departSpeed="2.0960096534319534" from="60" id="167" to="-89" type="car" />
	<trip arrivalLane="0" arrivalPos="5.130477560617525" depart="5" departLane="0" departPos="73.61045638008174" departSpeed="3.8961783837231287" from="-155" id="216" to="-128#0" type="car" />
	<trip arrivalLane="2" arrivalPos="40.95" depart="6" departLane="3" departPos="74.49609196402314" departSpeed="1.23579859905875" from="-155" id="288" to="-89" type="car" />
	<trip arrivalLane="2" arrivalPos="44.2375321078625" depart="7" departLane="0" departPos="0.0" departSpeed="4.898462457154836" from="-198" id="51" to="-198" type="car" />
	<trip arrivalLane="1" arrivalPos="40.95" depart="7" departLane="2" departPos="74.6268955472207" departSpeed="3.2982993428116734" from="-155" id="333" to="-89" type="car" />
	<trip arrivalLane="0" arrivalPos="11.232770454708264" depart="9" departLane="4" departPos="76.16543916444493" departSpeed="5.693137019472506" from="-155" id="374" to="-77" type="car" />
	<trip arrivalLane="1" arrivalPos="5.130477560617525" depart="9" departLane="0" departPos="75.01022123160715" departSpeed="2.41672795153837" from="-155" id="382" to="-128#0" type="car" />
	<trip arrivalLane="0" arrivalPos="40.95" depart="10" departLane="1" departPos="73.85744472126132" departSpeed="3.89617838108721" from="-155" id="419" to="-89" type="car" />
	<trip arrivalLane="2" arrivalPos="40.95" depart="10" departLane="3" departPos="74.59517975700179" departSpeed="4.805629739244435" from="-155" id="421" to="-89" type="car" />
	<trip arrivalLane="1" arrivalPos="40.95" depart="11" departLane="2" departPos="74.42641781516294" departSpeed="5.999532284048832" from="-155" id="455" to="-89" type="car" />
	<trip arrivalLane="0" arrivalPos="11.394274665793178" depart="11" departLane="4" departPos="76.46545720885048" departSpeed="6.2910160496003025" from="-155" id="462" to="-77" type="car" />
	<trip arrivalLane="0" arrivalPos="5.130477560617525" depart="11" departLane="0" departPos="46.86077958089186" departSpeed="3.229732690463444" from="-103" id="487" to="-128#0" type="car" />
	<trip arrivalLane="0" arrivalPos="40.95" depart="12" departLane="1" departPos="75.457481246616" departSpeed="7.792356742758997" from="-155" id="496" to="-89" type="car" />
	<trip arrivalLane="2" arrivalPos="8.807692937437256" depart="12" departLane="5" departPos="80.02494025747251" departSpeed="11.69235893744186" from="-155" id="474" to="-77" type="car" />
	<trip arrivalLane="2" arrivalPos="40.95" depart="12" departLane="3" departPos="75.99527199285612" departSpeed="7.200810883057156" from="-155" id="491" to="-89" type="car" />
	<trip arrivalLane="1" arrivalPos="40.95" depart="13" departLane="2" departPos="75.92658700071568" departSpeed="9.295186390614866" from="-155" id="522" to="-89" type="car" />
	<trip arrivalLane="0" arrivalPos="11.250439546883312" depart="13" departLane="4" departPos="76.36558537131145" departSpeed="6.895538182520408" from="-155" id="530" to="-77" type="car" />
	<trip arrivalLane="2" arrivalPos="40.95" depart="14" departLane="3" departPos="75.99527199285612" departSpeed="8.393557319765288" from="-155" id="565" to="-89" type="car" />
	<trip arrivalLane="1" arrivalPos="40.95" depart="15" departLane="2" departPos="75.92625609105365" departSpeed="10.194988161530627" from="-155" id="594" to="-89" type="car" />
	<trip arrivalLane="2" arrivalPos="40.95" depart="17" departLane="3" departPos="76.29627534753207" departSpeed="10.194901755834133" from="-155" id="662" to="-89" type="car" />
	<trip arrivalLane="0" arrivalPos="40.95" depart="18" departLane="1" departPos="75.65808096000806" departSpeed="10.493716341756821" from="-155" id="676" to="-89" type="car" />
	<trip arrivalLane="1" arrivalPos="40.95" depart="18" departLane="2" departPos="75.52649585620168" departSpeed="10.190515973043473" from="-155" id="685" to="-89" type="car" />
	<trip arrivalLane="0" arrivalPos="5.130477560617525" depart="18" departLane="0" departPos="48.78617009100586" departSpeed="0.0" from="-103" id="702" to="-128#0" type="car" />
	<trip arrivalLane="2" arrivalPos="40.95" depart="19" departLane="3" departPos="76.8969662137035" departSpeed="11.685213529875499" from="-155" id="724" to="-89" type="car" />
	<trip arrivalLane="1" arrivalPos="5.130477560617525" depart="19" departLane="0" departPos="75.10963895026893" departSpeed="5.104023931367487" from="-155" id="728" to="-128#0" type="car" />
	<trip arrivalLane="1" arrivalPos="40.95" depart="20" departLane="2" departPos="75.92560069598844" departSpeed="11.389595577550024" from="-155" id="750" to="-89" type="car" />
	<trip arrivalLane="2" arrivalPos="44.6694819529793" depart="20" departLane="3" departPos="86.13973155598319" departSpeed="7.79477091816459" from="-94#1" id="751" to="-198" type="car" />
	<trip arrivalLane="0" arrivalPos="40.95" depart="21" departLane="1" departPos="75.65808096000806" departSpeed="9.59397601944916" from="-155" id="779" to="-89" type="car" />
	<trip arrivalLane="1" arrivalPos="11.681466824804406" depart="21" departLane="0" departPos="86.69715069932258" departSpeed="13.488812659199885" from="-94#1" id="791" to="-77" type="car" />
	<trip arrivalLane="2" arrivalPos="40.95" depart="22" departLane="3" departPos="76.49621714309117" departSpeed="12.884293148263101" from="-155" id="814" to="-89" type="car" />
	<trip arrivalLane="0" arrivalPos="40.95" depart="23" departLane="1" departPos="75.75683934191568" departSpeed="12.290052010660544" from="-155" id="854" to="-89" type="car" />
	<trip arrivalLane="1" arrivalPos="5.130477560617525" depart="23" departLane="0" departPos="75.00989323610462" departSpeed="6.2943376139515586" from="-155" id="875" to="-128#0" type="car" />
	<trip arrivalLane="1" arrivalPos="40.95" depart="24" departLane="2" departPos="76.52661925311179" departSpeed="13.787675878385786" from="-155" id="896" to="-89" type="car" />
	<trip arrivalLane="2" arrivalPos="40.95" depart="24" departLane="3" departPos="77.09645764445679" departSpeed="16.487565062139907" from="-155" id="905" to="-89" type="car" />
	<trip arrivalLane="0" arrivalPos="40.95" depart="25" departLane="1" departPos="75.35773553294275" departSpeed="11.991203196241468" from="-155" id="931" to="-89" type="car" />
	<trip arrivalLane="0" arrivalPos="11.278572707675169" depart="27" departLane="4" departPos="74.76468890834472" departSpeed="10.190515980442251" from="-155" id="1005" to="-77" type="car" />
	<trip arrivalLane="1" arrivalPos="40.95" depart="27" departLane="2" departPos="76.12784210647987" departSpeed="14.083372766865915" from="-155" id="982" to="-89" type="car" />
	<trip arrivalLane="0" arrivalPos="40.95" depart="28" departLane="1" departPos="75.65808096000806" departSpeed="11.689038539704653" from="-155" id="1014" to="-89" type="car" />
	<trip arrivalLane="2" arrivalPos="40.95" depart="28" departLane="3" departPos="76.69570857454121" departSpeed="15.584713429436718" from="-155" id="1017" to="-89" type="car" />
	<trip arrivalLane="1" arrivalPos="40.95" depart="28" departLane="2" departPos="75.92691469665296" departSpeed="15.288698144014864" from="-155" id="1041" to="-89" type="car" />
	<trip arrivalLane="1" arrivalPos="5.130477560617525" depart="29" departLane="0" departPos="75.71000180757821" departSpeed="12.286414130272009" from="-155" id="1050" to="-128#0" type="car" />
	<trip arrivalLane="1" arrivalPos="12.071733031153649" depart="29" departLane="0" departPos="87.09572729372984" departSpeed="14.385631044028013" from="-94#1" id="1064" to="-77" type="car" />
	<trip arrivalLane="2" arrivalPos="40.95" depart="30" departLane="3" departPos="76.49654770893349" departSpeed="15.886467112695492" from="-155" id="1106" to="-89" type="car" />
	<trip arrivalLane="0" arrivalPos="40.95" depart="31" departLane="1" departPos="76.15824584960653" departSpeed="16.185354657422582" from="-155" id="1127" to="-89" type="car" />
	<trip arrivalLane="1" arrivalPos="40.95" depart="32" departLane="2" departPos="76.12685580597991" departSpeed="12.290123675682642" from="-155" id="1173" to="-89" type="car" />
	<trip arrivalLane="2" arrivalPos="40.95" depart="32" departLane="3" departPos="76.59596285863913" departSpeed="15.587638073393185" from="-155" id="1179" to="-89" type="car" />
	<trip arrivalLane="2" arrivalPos="44.4704809259754" depart="33" departLane="3" departPos="86.23997866500831" departSpeed="10.194986268824348" from="-94#1" id="1194" to="-198" type="car" />
	<trip arrivalLane="2" arrivalPos="40.95" depart="34" departLane="3" departPos="76.4975297741349" departSpeed="17.08540077333891" from="-155" id="1219" to="-89" type="car" />
	<trip arrivalLane="1" arrivalPos="40.95" depart="34" departLane="2" departPos="76.02698810562497" departSpeed="12.592225752061692" from="-155" id="1240" to="-89" type="car" />
	<trip arrivalLane="1" arrivalPos="44.44046605836699" depart="35" departLane="2" departPos="86.1799645180511" departSpeed="4.49737805893707" from="-94#1" id="1265" to="-198" type="car" />
	<trip arrivalLane="0" arrivalPos="43.84456494546818" depart="36" departLane="1" departPos="86.41855154893665" departSpeed="2.413431957314783" from="-94#1" id="1293" to="-198" type="car" />
	<trip arrivalLane="2" arrivalPos="44.6694819529793" depart="36" departLane="3" departPos="86.13973155598319" departSpeed="11.390197274198963" from="-94#1" id="1302" to="-198" type="car" />
	<trip arrivalLane="0" arrivalPos="11.604556259882026" depart="37" departLane="4" departPos="76.36493059603818" departSpeed="8.393557314042406" from="-155" id="1328" to="-77" type="car" />
	<trip arrivalLane="1" arrivalPos="44.44034349856045" depart="38" departLane="2" departPos="86.17946232306419" departSpeed="6.002848698656466" from="-94#1" id="1369" to="-198" type="car" />
	<trip arrivalLane="0" arrivalPos="44.242691744513" depart="38" departLane="1" departPos="86.21946500548236" departSpeed="4.805629020153819" from="-94#1" id="1380" to="-198" type="car" />
	<trip arrivalLane="0" arrivalPos="44.3444041221296" depart="41" departLane="1" departPos="86.7177864559738" departSpeed="6.593275815296794" from="-94#1" id="1463" to="-198" type="car" />
	<trip arrivalLane="1" arrivalPos="11.46312162490116" depart="42" departLane="0" departPos="86.69664356291115" departSpeed="15.297579639583747" from="-94#1" id="1482" to="-77" type="car" />
	<trip arrivalLane="0" arrivalPos="40.95" depart="43" departLane="0" departPos="36.6081989013851" departSpeed="2.6998948367427515" from="60" id="1521" to="-89" type="car" />
	<trip arrivalLane="2" arrivalPos="44.63799394716741" depart="44" departLane="2" departPos="86.2803155690418" departSpeed="11.689036340046675" from="-94#1" id="1528" to="-198" type="car" />
	<trip arrivalLane="2" arrivalPos="44.77033642071734" depart="45" departLane="3" departPos="86.53871143364614" departSpeed="15.89833356700069" from="-94#1" id="1580" to="-198" type="car" />
	<trip arrivalLane="0" arrivalPos="40.95" depart="48" departLane="0" departPos="36.6081989013851" departSpeed="2.3979521982646617" from="60" id="1660" to="-89" type="car" />
	<trip arrivalLane="0" arrivalPos="44.24478053911878" depart="48" departLane="1" departPos="87.01913906131091" departSpeed="16.7837898162012" from="-94#1" id="1664" to="-198" type="car" />
	<trip arrivalLane="0" arrivalPos="44.34354358225047" depart="50" departLane="1" departPos="87.4192272133134" departSpeed="17.384240474816075" from="-94#1" id="1703" to="-198" type="car" />
	<trip arrivalLane="2" arrivalPos="44.87045139360063" depart="52" departLane="3" departPos="86.63956468097291" departSpeed="18.88205528302951" from="-94#1" id="1774" to="-198" type="car" />
	<trip arrivalLane="1" arrivalPos="44.63983585297489" depart="53" departLane="2" departPos="87.07888140443656" departSpeed="16.783789820854405" from="-94#1" id="1800" to="-198" type="car" />
	<trip arrivalLane="0" arrivalPos="40.95" depart="53" departLane="0" departPos="36.60668537312164" departSpeed="3.013768746502524" from="60" id="1804" to="-89" type="car" />
	<trip arrivalLane="2" arrivalPos="44.66972701452201" depart="54" departLane="3" departPos="86.59566054543535" departSpeed="18.583153907060247" from="-94#1" id="1830" to="-198" type="car" />
	<trip arrivalLane="0" arrivalPos="44.04504179563133" depart="54" departLane="1" departPos="87.22064292672802" departSpeed="18.584069679691243" from="-94#1" id="1838" to="-198" type="car" />
	<trip arrivalLane="2" arrivalPos="44.87008259902527" depart="55" departLane="3" departPos="86.74031885270361" departSpeed="18.58315390953732" from="-94#1" id="1863" to="-198" type="car" />
	<trip arrivalLane="1" arrivalPos="44.64032730083732" depart="55" departLane="2" departPos="86.48030770281082" departSpeed="17.085397549009308" from="-94#1" id="1872" to="-198" type="car" />
	<trip arrivalLane="1" arrivalPos="40.95" depart="56" departLane="0" departPos="36.70135114174316" departSpeed="2.9959746388213686" from="60" id="1909" to="-89" type="car" />
	<trip arrivalLane="2" arrivalPos="44.770458951486845" depart="56" departLane="3" departPos="86.9398087913411" departSpeed="20.383221294153117" from="-94#1" id="1911" to="-198" type="car" />
	<trip arrivalLane="0" arrivalPos="44.54500476730171" depart="57" departLane="1" departPos="87.01762739214743" departSpeed="18.580748122606348" from="-94#1" id="1928" to="-198" type="car" />
	<trip arrivalLane="1" arrivalPos="44.33948903050717" depart="57" departLane="2" departPos="87.0793835986772" departSpeed="16.48485036132366" from="-94#1" id="1916" to="-198" type="car" />
	<trip arrivalLane="2" arrivalPos="44.97007383816103" depart="59" departLane="3" departPos="87.09498652150853" departSpeed="21.58847338883875" from="-94#1" id="1934" to="-198" type="car" />
	<trip arrivalLane="0" arrivalPos="5.130477560617525" depart="59" departLane="0" departPos="75.48393663982112" departSpeed="16.879717510603317" from="-155" id="1931" to="-128#0" type="car" />
	<trip arrivalLane="1" arrivalPos="44.54021223592707" depart="59" departLane="2" departPos="86.88140517360661" departSpeed="18.879687584324067" from="-94#1" id="1932" to="-198" type="car" />
	<trip arrivalLane="1" arrivalPos="40.95" depart="60" departLane="0" departPos="36.69982079736639" departSpeed="3.5939970038006286" from="60" id="1940" to="-89" type="car" />
	<trip arrivalLane="1" arrivalPos="40.95" depart="61" departLane="2" departPos="76.02698810562497" departSpeed="12.592225752061692" from="-155" id="1942" to="-89" type="car" />
	<trip arrivalLane="0" arrivalPos="5.130477560617525" depart="61" departLane="0" departPos="76.21148185170293" departSpeed="13.784433249601564" from="-155" id="1944" to="-128#0" type="car" />
	<trip arrivalLane="2" arrivalPos="40.95" depart="61" departLane="3" departPos="76.59793340424184" departSpeed="12.28641411317578" from="-155" id="1946" to="-89" type="car" />
	<trip arrivalLane="0" arrivalPos="44.54488097265244" depart="62" departLane="1" departPos="87.11888402972474" departSpeed="17.085346002999593" from="-94#1" id="1947" to="-198" type="car" />
	<trip arrivalLane="0" arrivalPos="5.130477560617525" depart="63" departLane="4" departPos="86.00098903225714" departSpeed="5.3941964337468455" from="-94#1" id="1953" to="-128#0" type="car" />
	<trip arrivalLane="1" arrivalPos="44.73933691199005" depart="63" departLane="2" departPos="86.87939146634133" departSpeed="19.483182691122956" from="-94#1" id="1948" to="-198" type="car" />
	<trip arrivalLane="2" arrivalPos="5.130477560617525" depart="63" departLane="5" departPos="85.26516983977714" departSpeed="5.394196427016359" from="-94#1" id="1950" to="-128#0" type="car" />
	<trip arrivalLane="1" arrivalPos="44.540335998357065" depart="64" departLane="2" departPos="86.8356572143389" departSpeed="18.586475029393178" from="-94#1" id="1956" to="-198" type="car" />
	<trip arrivalLane="0" arrivalPos="40.95" depart="64" departLane="0" departPos="36.90693940872062" departSpeed="4.805212172954183" from="60" id="1958" to="-89" type="car" />
	<trip arrivalLane="2" arrivalPos="45.37053563785112" depart="65" departLane="3" departPos="87.49457245402009" departSpeed="23.384788851914625" from="-94#1" id="1960" to="-198" type="car" />
	<trip arrivalLane="2" arrivalPos="5.130477560617525" depart="65" departLane="5" departPos="85.46627018002114" departSpeed="6.898826101857821" from="-94#1" id="1962" to="-128#0" type="car" />
	<trip arrivalLane="1" arrivalPos="5.130477560617525" depart="66" departLane="4" departPos="85.70265946073798" departSpeed="6.8988261000418065" from="-94#1" id="1964" to="-128#0" type="car" />
	<trip arrivalLane="0" arrivalPos="43.844318557008506" depart="67" departLane="1" departPos="87.21963349901556" departSpeed="19.18427899429887" from="-94#1" id="1965" to="-198" type="car" />